data_image0
_chemical_formula_structural       Au1415
_chemical_formula_sum              "Au1415"
_cell_length_a       54.9775
_cell_length_b       54.9775
_cell_length_c       54.9775
_cell_angle_alpha    90
_cell_angle_beta     90
_cell_angle_gamma    90

_space_group_name_H-M_alt    "P 1"
_space_group_IT_number       1

loop_
  _space_group_symop_operation_xyz
  'x, y, z'

loop_
  _atom_site_type_symbol
  _atom_site_label
  _atom_site_symmetry_multiplicity
  _atom_site_fract_x
  _atom_site_fract_y
  _atom_site_fract_z
  _atom_site_occupancy
  Au  Au1       1.0  0.50000  0.50000  0.50000  1.0000
  Au  Au2       1.0  0.54544  0.50000  0.47191  1.0000
  Au  Au3       1.0  0.54544  0.50000  0.52809  1.0000
  Au  Au4       1.0  0.45456  0.50000  0.47191  1.0000
  Au  Au5       1.0  0.45456  0.50000  0.52809  1.0000
  Au  Au6       1.0  0.47191  0.54544  0.50000  1.0000
  Au  Au7       1.0  0.52809  0.54544  0.50000  1.0000
  Au  Au8       1.0  0.47191  0.45456  0.50000  1.0000
  Au  Au9       1.0  0.52809  0.45456  0.50000  1.0000
  Au  Au10      1.0  0.50000  0.47191  0.54544  1.0000
  Au  Au11      1.0  0.50000  0.52809  0.54544  1.0000
  Au  Au12      1.0  0.50000  0.47191  0.45456  1.0000
  Au  Au13      1.0  0.50000  0.52809  0.45456  1.0000
  Au  Au14      1.0  0.59089  0.50000  0.44383  1.0000
  Au  Au15      1.0  0.59089  0.50000  0.50000  1.0000
  Au  Au16      1.0  0.59089  0.50000  0.55617  1.0000
  Au  Au17      1.0  0.40911  0.50000  0.44383  1.0000
  Au  Au18      1.0  0.40911  0.50000  0.50000  1.0000
  Au  Au19      1.0  0.40911  0.50000  0.55617  1.0000
  Au  Au20      1.0  0.44383  0.59089  0.50000  1.0000
  Au  Au21      1.0  0.50000  0.59089  0.50000  1.0000
  Au  Au22      1.0  0.55617  0.59089  0.50000  1.0000
  Au  Au23      1.0  0.44383  0.40911  0.50000  1.0000
  Au  Au24      1.0  0.50000  0.40911  0.50000  1.0000
  Au  Au25      1.0  0.55617  0.40911  0.50000  1.0000
  Au  Au26      1.0  0.50000  0.44383  0.59089  1.0000
  Au  Au27      1.0  0.50000  0.50000  0.59089  1.0000
  Au  Au28      1.0  0.50000  0.55617  0.59089  1.0000
  Au  Au29      1.0  0.50000  0.44383  0.40911  1.0000
  Au  Au30      1.0  0.50000  0.50000  0.40911  1.0000
  Au  Au31      1.0  0.50000  0.55617  0.40911  1.0000
  Au  Au32      1.0  0.54544  0.47191  0.57353  1.0000
  Au  Au33      1.0  0.54544  0.52809  0.57353  1.0000
  Au  Au34      1.0  0.54544  0.47191  0.42647  1.0000
  Au  Au35      1.0  0.54544  0.52809  0.42647  1.0000
  Au  Au36      1.0  0.45456  0.47191  0.57353  1.0000
  Au  Au37      1.0  0.45456  0.52809  0.57353  1.0000
  Au  Au38      1.0  0.45456  0.47191  0.42647  1.0000
  Au  Au39      1.0  0.45456  0.52809  0.42647  1.0000
  Au  Au40      1.0  0.57353  0.54544  0.47191  1.0000
  Au  Au41      1.0  0.57353  0.54544  0.52809  1.0000
  Au  Au42      1.0  0.42647  0.54544  0.47191  1.0000
  Au  Au43      1.0  0.42647  0.54544  0.52809  1.0000
  Au  Au44      1.0  0.57353  0.45456  0.47191  1.0000
  Au  Au45      1.0  0.57353  0.45456  0.52809  1.0000
  Au  Au46      1.0  0.42647  0.45456  0.47191  1.0000
  Au  Au47      1.0  0.42647  0.45456  0.52809  1.0000
  Au  Au48      1.0  0.47191  0.57353  0.54544  1.0000
  Au  Au49      1.0  0.52809  0.57353  0.54544  1.0000
  Au  Au50      1.0  0.47191  0.42647  0.54544  1.0000
  Au  Au51      1.0  0.52809  0.42647  0.54544  1.0000
  Au  Au52      1.0  0.47191  0.57353  0.45456  1.0000
  Au  Au53      1.0  0.52809  0.57353  0.45456  1.0000
  Au  Au54      1.0  0.47191  0.42647  0.45456  1.0000
  Au  Au55      1.0  0.52809  0.42647  0.45456  1.0000
  Au  Au56      1.0  0.63633  0.50000  0.41574  1.0000
  Au  Au57      1.0  0.63633  0.50000  0.47191  1.0000
  Au  Au58      1.0  0.63633  0.50000  0.52809  1.0000
  Au  Au59      1.0  0.63633  0.50000  0.58426  1.0000
  Au  Au60      1.0  0.36367  0.50000  0.41574  1.0000
  Au  Au61      1.0  0.36367  0.50000  0.47191  1.0000
  Au  Au62      1.0  0.36367  0.50000  0.52809  1.0000
  Au  Au63      1.0  0.36367  0.50000  0.58426  1.0000
  Au  Au64      1.0  0.41574  0.63633  0.50000  1.0000
  Au  Au65      1.0  0.47191  0.63633  0.50000  1.0000
  Au  Au66      1.0  0.52809  0.63633  0.50000  1.0000
  Au  Au67      1.0  0.58426  0.63633  0.50000  1.0000
  Au  Au68      1.0  0.41574  0.36367  0.50000  1.0000
  Au  Au69      1.0  0.47191  0.36367  0.50000  1.0000
  Au  Au70      1.0  0.52809  0.36367  0.50000  1.0000
  Au  Au71      1.0  0.58426  0.36367  0.50000  1.0000
  Au  Au72      1.0  0.50000  0.41574  0.63633  1.0000
  Au  Au73      1.0  0.50000  0.47191  0.63633  1.0000
  Au  Au74      1.0  0.50000  0.52809  0.63633  1.0000
  Au  Au75      1.0  0.50000  0.58426  0.63633  1.0000
  Au  Au76      1.0  0.50000  0.41574  0.36367  1.0000
  Au  Au77      1.0  0.50000  0.47191  0.36367  1.0000
  Au  Au78      1.0  0.50000  0.52809  0.36367  1.0000
  Au  Au79      1.0  0.50000  0.58426  0.36367  1.0000
  Au  Au80      1.0  0.59089  0.47191  0.60162  1.0000
  Au  Au81      1.0  0.54544  0.44383  0.61897  1.0000
  Au  Au82      1.0  0.59089  0.52809  0.60162  1.0000
  Au  Au83      1.0  0.54544  0.50000  0.61897  1.0000
  Au  Au84      1.0  0.54544  0.55617  0.61897  1.0000
  Au  Au85      1.0  0.59089  0.47191  0.39838  1.0000
  Au  Au86      1.0  0.54544  0.44383  0.38103  1.0000
  Au  Au87      1.0  0.59089  0.52809  0.39838  1.0000
  Au  Au88      1.0  0.54544  0.50000  0.38103  1.0000
  Au  Au89      1.0  0.54544  0.55617  0.38103  1.0000
  Au  Au90      1.0  0.40911  0.47191  0.60162  1.0000
  Au  Au91      1.0  0.45456  0.44383  0.61897  1.0000
  Au  Au92      1.0  0.40911  0.52809  0.60162  1.0000
  Au  Au93      1.0  0.45456  0.50000  0.61897  1.0000
  Au  Au94      1.0  0.45456  0.55617  0.61897  1.0000
  Au  Au95      1.0  0.40911  0.47191  0.39838  1.0000
  Au  Au96      1.0  0.45456  0.44383  0.38103  1.0000
  Au  Au97      1.0  0.40911  0.52809  0.39838  1.0000
  Au  Au98      1.0  0.45456  0.50000  0.38103  1.0000
  Au  Au99      1.0  0.45456  0.55617  0.38103  1.0000
  Au  Au100     1.0  0.60162  0.59089  0.47191  1.0000
  Au  Au101     1.0  0.61897  0.54544  0.44383  1.0000
  Au  Au102     1.0  0.60162  0.59089  0.52809  1.0000
  Au  Au103     1.0  0.61897  0.54544  0.50000  1.0000
  Au  Au104     1.0  0.61897  0.54544  0.55617  1.0000
  Au  Au105     1.0  0.39838  0.59089  0.47191  1.0000
  Au  Au106     1.0  0.38103  0.54544  0.44383  1.0000
  Au  Au107     1.0  0.39838  0.59089  0.52809  1.0000
  Au  Au108     1.0  0.38103  0.54544  0.50000  1.0000
  Au  Au109     1.0  0.38103  0.54544  0.55617  1.0000
  Au  Au110     1.0  0.60162  0.40911  0.47191  1.0000
  Au  Au111     1.0  0.61897  0.45456  0.44383  1.0000
  Au  Au112     1.0  0.60162  0.40911  0.52809  1.0000
  Au  Au113     1.0  0.61897  0.45456  0.50000  1.0000
  Au  Au114     1.0  0.61897  0.45456  0.55617  1.0000
  Au  Au115     1.0  0.39838  0.40911  0.47191  1.0000
  Au  Au116     1.0  0.38103  0.45456  0.44383  1.0000
  Au  Au117     1.0  0.39838  0.40911  0.52809  1.0000
  Au  Au118     1.0  0.38103  0.45456  0.50000  1.0000
  Au  Au119     1.0  0.38103  0.45456  0.55617  1.0000
  Au  Au120     1.0  0.47191  0.60162  0.59089  1.0000
  Au  Au121     1.0  0.44383  0.61897  0.54544  1.0000
  Au  Au122     1.0  0.52809  0.60162  0.59089  1.0000
  Au  Au123     1.0  0.50000  0.61897  0.54544  1.0000
  Au  Au124     1.0  0.55617  0.61897  0.54544  1.0000
  Au  Au125     1.0  0.47191  0.39838  0.59089  1.0000
  Au  Au126     1.0  0.44383  0.38103  0.54544  1.0000
  Au  Au127     1.0  0.52809  0.39838  0.59089  1.0000
  Au  Au128     1.0  0.50000  0.38103  0.54544  1.0000
  Au  Au129     1.0  0.55617  0.38103  0.54544  1.0000
  Au  Au130     1.0  0.47191  0.60162  0.40911  1.0000
  Au  Au131     1.0  0.44383  0.61897  0.45456  1.0000
  Au  Au132     1.0  0.52809  0.60162  0.40911  1.0000
  Au  Au133     1.0  0.50000  0.61897  0.45456  1.0000
  Au  Au134     1.0  0.55617  0.61897  0.45456  1.0000
  Au  Au135     1.0  0.47191  0.39838  0.40911  1.0000
  Au  Au136     1.0  0.44383  0.38103  0.45456  1.0000
  Au  Au137     1.0  0.52809  0.39838  0.40911  1.0000
  Au  Au138     1.0  0.50000  0.38103  0.45456  1.0000
  Au  Au139     1.0  0.55617  0.38103  0.45456  1.0000
  Au  Au140     1.0  0.57353  0.42647  0.57353  1.0000
  Au  Au141     1.0  0.57353  0.57353  0.57353  1.0000
  Au  Au142     1.0  0.57353  0.42647  0.42647  1.0000
  Au  Au143     1.0  0.57353  0.57353  0.42647  1.0000
  Au  Au144     1.0  0.42647  0.42647  0.57353  1.0000
  Au  Au145     1.0  0.42647  0.57353  0.57353  1.0000
  Au  Au146     1.0  0.42647  0.42647  0.42647  1.0000
  Au  Au147     1.0  0.42647  0.57353  0.42647  1.0000
  Au  Au148     1.0  0.68178  0.50000  0.38766  1.0000
  Au  Au149     1.0  0.68178  0.50000  0.44383  1.0000
  Au  Au150     1.0  0.68178  0.50000  0.50000  1.0000
  Au  Au151     1.0  0.68178  0.50000  0.55617  1.0000
  Au  Au152     1.0  0.68178  0.50000  0.61234  1.0000
  Au  Au153     1.0  0.31822  0.50000  0.38766  1.0000
  Au  Au154     1.0  0.31822  0.50000  0.44383  1.0000
  Au  Au155     1.0  0.31822  0.50000  0.50000  1.0000
  Au  Au156     1.0  0.31822  0.50000  0.55617  1.0000
  Au  Au157     1.0  0.31822  0.50000  0.61234  1.0000
  Au  Au158     1.0  0.38766  0.68178  0.50000  1.0000
  Au  Au159     1.0  0.44383  0.68178  0.50000  1.0000
  Au  Au160     1.0  0.50000  0.68178  0.50000  1.0000
  Au  Au161     1.0  0.55617  0.68178  0.50000  1.0000
  Au  Au162     1.0  0.61234  0.68178  0.50000  1.0000
  Au  Au163     1.0  0.38766  0.31822  0.50000  1.0000
  Au  Au164     1.0  0.44383  0.31822  0.50000  1.0000
  Au  Au165     1.0  0.50000  0.31822  0.50000  1.0000
  Au  Au166     1.0  0.55617  0.31822  0.50000  1.0000
  Au  Au167     1.0  0.61234  0.31822  0.50000  1.0000
  Au  Au168     1.0  0.50000  0.38766  0.68178  1.0000
  Au  Au169     1.0  0.50000  0.44383  0.68178  1.0000
  Au  Au170     1.0  0.50000  0.50000  0.68178  1.0000
  Au  Au171     1.0  0.50000  0.55617  0.68178  1.0000
  Au  Au172     1.0  0.50000  0.61234  0.68178  1.0000
  Au  Au173     1.0  0.50000  0.38766  0.31822  1.0000
  Au  Au174     1.0  0.50000  0.44383  0.31822  1.0000
  Au  Au175     1.0  0.50000  0.50000  0.31822  1.0000
  Au  Au176     1.0  0.50000  0.55617  0.31822  1.0000
  Au  Au177     1.0  0.50000  0.61234  0.31822  1.0000
  Au  Au178     1.0  0.63633  0.47191  0.62970  1.0000
  Au  Au179     1.0  0.59089  0.44383  0.64706  1.0000
  Au  Au180     1.0  0.54544  0.41574  0.66442  1.0000
  Au  Au181     1.0  0.63633  0.52809  0.62970  1.0000
  Au  Au182     1.0  0.59089  0.50000  0.64706  1.0000
  Au  Au183     1.0  0.54544  0.47191  0.66442  1.0000
  Au  Au184     1.0  0.59089  0.55617  0.64706  1.0000
  Au  Au185     1.0  0.54544  0.52809  0.66442  1.0000
  Au  Au186     1.0  0.54544  0.58426  0.66442  1.0000
  Au  Au187     1.0  0.63633  0.47191  0.37030  1.0000
  Au  Au188     1.0  0.59089  0.44383  0.35294  1.0000
  Au  Au189     1.0  0.54544  0.41574  0.33558  1.0000
  Au  Au190     1.0  0.63633  0.52809  0.37030  1.0000
  Au  Au191     1.0  0.59089  0.50000  0.35294  1.0000
  Au  Au192     1.0  0.54544  0.47191  0.33558  1.0000
  Au  Au193     1.0  0.59089  0.55617  0.35294  1.0000
  Au  Au194     1.0  0.54544  0.52809  0.33558  1.0000
  Au  Au195     1.0  0.54544  0.58426  0.33558  1.0000
  Au  Au196     1.0  0.36367  0.47191  0.62970  1.0000
  Au  Au197     1.0  0.40911  0.44383  0.64706  1.0000
  Au  Au198     1.0  0.45456  0.41574  0.66442  1.0000
  Au  Au199     1.0  0.36367  0.52809  0.62970  1.0000
  Au  Au200     1.0  0.40911  0.50000  0.64706  1.0000
  Au  Au201     1.0  0.45456  0.47191  0.66442  1.0000
  Au  Au202     1.0  0.40911  0.55617  0.64706  1.0000
  Au  Au203     1.0  0.45456  0.52809  0.66442  1.0000
  Au  Au204     1.0  0.45456  0.58426  0.66442  1.0000
  Au  Au205     1.0  0.36367  0.47191  0.37030  1.0000
  Au  Au206     1.0  0.40911  0.44383  0.35294  1.0000
  Au  Au207     1.0  0.45456  0.41574  0.33558  1.0000
  Au  Au208     1.0  0.36367  0.52809  0.37030  1.0000
  Au  Au209     1.0  0.40911  0.50000  0.35294  1.0000
  Au  Au210     1.0  0.45456  0.47191  0.33558  1.0000
  Au  Au211     1.0  0.40911  0.55617  0.35294  1.0000
  Au  Au212     1.0  0.45456  0.52809  0.33558  1.0000
  Au  Au213     1.0  0.45456  0.58426  0.33558  1.0000
  Au  Au214     1.0  0.62970  0.63633  0.47191  1.0000
  Au  Au215     1.0  0.64706  0.59089  0.44383  1.0000
  Au  Au216     1.0  0.66442  0.54544  0.41574  1.0000
  Au  Au217     1.0  0.62970  0.63633  0.52809  1.0000
  Au  Au218     1.0  0.64706  0.59089  0.50000  1.0000
  Au  Au219     1.0  0.66442  0.54544  0.47191  1.0000
  Au  Au220     1.0  0.64706  0.59089  0.55617  1.0000
  Au  Au221     1.0  0.66442  0.54544  0.52809  1.0000
  Au  Au222     1.0  0.66442  0.54544  0.58426  1.0000
  Au  Au223     1.0  0.37030  0.63633  0.47191  1.0000
  Au  Au224     1.0  0.35294  0.59089  0.44383  1.0000
  Au  Au225     1.0  0.33558  0.54544  0.41574  1.0000
  Au  Au226     1.0  0.37030  0.63633  0.52809  1.0000
  Au  Au227     1.0  0.35294  0.59089  0.50000  1.0000
  Au  Au228     1.0  0.33558  0.54544  0.47191  1.0000
  Au  Au229     1.0  0.35294  0.59089  0.55617  1.0000
  Au  Au230     1.0  0.33558  0.54544  0.52809  1.0000
  Au  Au231     1.0  0.33558  0.54544  0.58426  1.0000
  Au  Au232     1.0  0.62970  0.36367  0.47191  1.0000
  Au  Au233     1.0  0.64706  0.40911  0.44383  1.0000
  Au  Au234     1.0  0.66442  0.45456  0.41574  1.0000
  Au  Au235     1.0  0.62970  0.36367  0.52809  1.0000
  Au  Au236     1.0  0.64706  0.40911  0.50000  1.0000
  Au  Au237     1.0  0.66442  0.45456  0.47191  1.0000
  Au  Au238     1.0  0.64706  0.40911  0.55617  1.0000
  Au  Au239     1.0  0.66442  0.45456  0.52809  1.0000
  Au  Au240     1.0  0.66442  0.45456  0.58426  1.0000
  Au  Au241     1.0  0.37030  0.36367  0.47191  1.0000
  Au  Au242     1.0  0.35294  0.40911  0.44383  1.0000
  Au  Au243     1.0  0.33558  0.45456  0.41574  1.0000
  Au  Au244     1.0  0.37030  0.36367  0.52809  1.0000
  Au  Au245     1.0  0.35294  0.40911  0.50000  1.0000
  Au  Au246     1.0  0.33558  0.45456  0.47191  1.0000
  Au  Au247     1.0  0.35294  0.40911  0.55617  1.0000
  Au  Au248     1.0  0.33558  0.45456  0.52809  1.0000
  Au  Au249     1.0  0.33558  0.45456  0.58426  1.0000
  Au  Au250     1.0  0.47191  0.62970  0.63633  1.0000
  Au  Au251     1.0  0.44383  0.64706  0.59089  1.0000
  Au  Au252     1.0  0.41574  0.66442  0.54544  1.0000
  Au  Au253     1.0  0.52809  0.62970  0.63633  1.0000
  Au  Au254     1.0  0.50000  0.64706  0.59089  1.0000
  Au  Au255     1.0  0.47191  0.66442  0.54544  1.0000
  Au  Au256     1.0  0.55617  0.64706  0.59089  1.0000
  Au  Au257     1.0  0.52809  0.66442  0.54544  1.0000
  Au  Au258     1.0  0.58426  0.66442  0.54544  1.0000
  Au  Au259     1.0  0.47191  0.37030  0.63633  1.0000
  Au  Au260     1.0  0.44383  0.35294  0.59089  1.0000
  Au  Au261     1.0  0.41574  0.33558  0.54544  1.0000
  Au  Au262     1.0  0.52809  0.37030  0.63633  1.0000
  Au  Au263     1.0  0.50000  0.35294  0.59089  1.0000
  Au  Au264     1.0  0.47191  0.33558  0.54544  1.0000
  Au  Au265     1.0  0.55617  0.35294  0.59089  1.0000
  Au  Au266     1.0  0.52809  0.33558  0.54544  1.0000
  Au  Au267     1.0  0.58426  0.33558  0.54544  1.0000
  Au  Au268     1.0  0.47191  0.62970  0.36367  1.0000
  Au  Au269     1.0  0.44383  0.64706  0.40911  1.0000
  Au  Au270     1.0  0.41574  0.66442  0.45456  1.0000
  Au  Au271     1.0  0.52809  0.62970  0.36367  1.0000
  Au  Au272     1.0  0.50000  0.64706  0.40911  1.0000
  Au  Au273     1.0  0.47191  0.66442  0.45456  1.0000
  Au  Au274     1.0  0.55617  0.64706  0.40911  1.0000
  Au  Au275     1.0  0.52809  0.66442  0.45456  1.0000
  Au  Au276     1.0  0.58426  0.66442  0.45456  1.0000
  Au  Au277     1.0  0.47191  0.37030  0.36367  1.0000
  Au  Au278     1.0  0.44383  0.35294  0.40911  1.0000
  Au  Au279     1.0  0.41574  0.33558  0.45456  1.0000
  Au  Au280     1.0  0.52809  0.37030  0.36367  1.0000
  Au  Au281     1.0  0.50000  0.35294  0.40911  1.0000
  Au  Au282     1.0  0.47191  0.33558  0.45456  1.0000
  Au  Au283     1.0  0.55617  0.35294  0.40911  1.0000
  Au  Au284     1.0  0.52809  0.33558  0.45456  1.0000
  Au  Au285     1.0  0.58426  0.33558  0.45456  1.0000
  Au  Au286     1.0  0.61897  0.42647  0.60162  1.0000
  Au  Au287     1.0  0.61897  0.57353  0.60162  1.0000
  Au  Au288     1.0  0.60162  0.38103  0.57353  1.0000
  Au  Au289     1.0  0.60162  0.61897  0.57353  1.0000
  Au  Au290     1.0  0.57353  0.39838  0.61897  1.0000
  Au  Au291     1.0  0.57353  0.60162  0.61897  1.0000
  Au  Au292     1.0  0.61897  0.42647  0.39838  1.0000
  Au  Au293     1.0  0.61897  0.57353  0.39838  1.0000
  Au  Au294     1.0  0.60162  0.38103  0.42647  1.0000
  Au  Au295     1.0  0.60162  0.61897  0.42647  1.0000
  Au  Au296     1.0  0.57353  0.39838  0.38103  1.0000
  Au  Au297     1.0  0.57353  0.60162  0.38103  1.0000
  Au  Au298     1.0  0.38103  0.42647  0.60162  1.0000
  Au  Au299     1.0  0.38103  0.57353  0.60162  1.0000
  Au  Au300     1.0  0.39838  0.38103  0.57353  1.0000
  Au  Au301     1.0  0.39838  0.61897  0.57353  1.0000
  Au  Au302     1.0  0.42647  0.39838  0.61897  1.0000
  Au  Au303     1.0  0.42647  0.60162  0.61897  1.0000
  Au  Au304     1.0  0.38103  0.42647  0.39838  1.0000
  Au  Au305     1.0  0.38103  0.57353  0.39838  1.0000
  Au  Au306     1.0  0.39838  0.38103  0.42647  1.0000
  Au  Au307     1.0  0.39838  0.61897  0.42647  1.0000
  Au  Au308     1.0  0.42647  0.39838  0.38103  1.0000
  Au  Au309     1.0  0.42647  0.60162  0.38103  1.0000
  Au  Au310     1.0  0.72722  0.50000  0.35957  1.0000
  Au  Au311     1.0  0.72722  0.50000  0.41574  1.0000
  Au  Au312     1.0  0.72722  0.50000  0.47191  1.0000
  Au  Au313     1.0  0.72722  0.50000  0.52809  1.0000
  Au  Au314     1.0  0.72722  0.50000  0.58426  1.0000
  Au  Au315     1.0  0.72722  0.50000  0.64043  1.0000
  Au  Au316     1.0  0.27278  0.50000  0.35957  1.0000
  Au  Au317     1.0  0.27278  0.50000  0.41574  1.0000
  Au  Au318     1.0  0.27278  0.50000  0.47191  1.0000
  Au  Au319     1.0  0.27278  0.50000  0.52809  1.0000
  Au  Au320     1.0  0.27278  0.50000  0.58426  1.0000
  Au  Au321     1.0  0.27278  0.50000  0.64043  1.0000
  Au  Au322     1.0  0.35957  0.72722  0.50000  1.0000
  Au  Au323     1.0  0.41574  0.72722  0.50000  1.0000
  Au  Au324     1.0  0.47191  0.72722  0.50000  1.0000
  Au  Au325     1.0  0.52809  0.72722  0.50000  1.0000
  Au  Au326     1.0  0.58426  0.72722  0.50000  1.0000
  Au  Au327     1.0  0.64043  0.72722  0.50000  1.0000
  Au  Au328     1.0  0.35957  0.27278  0.50000  1.0000
  Au  Au329     1.0  0.41574  0.27278  0.50000  1.0000
  Au  Au330     1.0  0.47191  0.27278  0.50000  1.0000
  Au  Au331     1.0  0.52809  0.27278  0.50000  1.0000
  Au  Au332     1.0  0.58426  0.27278  0.50000  1.0000
  Au  Au333     1.0  0.64043  0.27278  0.50000  1.0000
  Au  Au334     1.0  0.50000  0.35957  0.72722  1.0000
  Au  Au335     1.0  0.50000  0.41574  0.72722  1.0000
  Au  Au336     1.0  0.50000  0.47191  0.72722  1.0000
  Au  Au337     1.0  0.50000  0.52809  0.72722  1.0000
  Au  Au338     1.0  0.50000  0.58426  0.72722  1.0000
  Au  Au339     1.0  0.50000  0.64043  0.72722  1.0000
  Au  Au340     1.0  0.50000  0.35957  0.27278  1.0000
  Au  Au341     1.0  0.50000  0.41574  0.27278  1.0000
  Au  Au342     1.0  0.50000  0.47191  0.27278  1.0000
  Au  Au343     1.0  0.50000  0.52809  0.27278  1.0000
  Au  Au344     1.0  0.50000  0.58426  0.27278  1.0000
  Au  Au345     1.0  0.50000  0.64043  0.27278  1.0000
  Au  Au346     1.0  0.68178  0.47191  0.65779  1.0000
  Au  Au347     1.0  0.63633  0.44383  0.67515  1.0000
  Au  Au348     1.0  0.59089  0.41574  0.69250  1.0000
  Au  Au349     1.0  0.54544  0.38766  0.70986  1.0000
  Au  Au350     1.0  0.68178  0.52809  0.65779  1.0000
  Au  Au351     1.0  0.63633  0.50000  0.67515  1.0000
  Au  Au352     1.0  0.59089  0.47191  0.69250  1.0000
  Au  Au353     1.0  0.54544  0.44383  0.70986  1.0000
  Au  Au354     1.0  0.63633  0.55617  0.67515  1.0000
  Au  Au355     1.0  0.59089  0.52809  0.69250  1.0000
  Au  Au356     1.0  0.54544  0.50000  0.70986  1.0000
  Au  Au357     1.0  0.59089  0.58426  0.69250  1.0000
  Au  Au358     1.0  0.54544  0.55617  0.70986  1.0000
  Au  Au359     1.0  0.54544  0.61234  0.70986  1.0000
  Au  Au360     1.0  0.68178  0.47191  0.34221  1.0000
  Au  Au361     1.0  0.63633  0.44383  0.32485  1.0000
  Au  Au362     1.0  0.59089  0.41574  0.30750  1.0000
  Au  Au363     1.0  0.54544  0.38766  0.29014  1.0000
  Au  Au364     1.0  0.68178  0.52809  0.34221  1.0000
  Au  Au365     1.0  0.63633  0.50000  0.32485  1.0000
  Au  Au366     1.0  0.59089  0.47191  0.30750  1.0000
  Au  Au367     1.0  0.54544  0.44383  0.29014  1.0000
  Au  Au368     1.0  0.63633  0.55617  0.32485  1.0000
  Au  Au369     1.0  0.59089  0.52809  0.30750  1.0000
  Au  Au370     1.0  0.54544  0.50000  0.29014  1.0000
  Au  Au371     1.0  0.59089  0.58426  0.30750  1.0000
  Au  Au372     1.0  0.54544  0.55617  0.29014  1.0000
  Au  Au373     1.0  0.54544  0.61234  0.29014  1.0000
  Au  Au374     1.0  0.31822  0.47191  0.65779  1.0000
  Au  Au375     1.0  0.36367  0.44383  0.67515  1.0000
  Au  Au376     1.0  0.40911  0.41574  0.69250  1.0000
  Au  Au377     1.0  0.45456  0.38766  0.70986  1.0000
  Au  Au378     1.0  0.31822  0.52809  0.65779  1.0000
  Au  Au379     1.0  0.36367  0.50000  0.67515  1.0000
  Au  Au380     1.0  0.40911  0.47191  0.69250  1.0000
  Au  Au381     1.0  0.45456  0.44383  0.70986  1.0000
  Au  Au382     1.0  0.36367  0.55617  0.67515  1.0000
  Au  Au383     1.0  0.40911  0.52809  0.69250  1.0000
  Au  Au384     1.0  0.45456  0.50000  0.70986  1.0000
  Au  Au385     1.0  0.40911  0.58426  0.69250  1.0000
  Au  Au386     1.0  0.45456  0.55617  0.70986  1.0000
  Au  Au387     1.0  0.45456  0.61234  0.70986  1.0000
  Au  Au388     1.0  0.31822  0.47191  0.34221  1.0000
  Au  Au389     1.0  0.36367  0.44383  0.32485  1.0000
  Au  Au390     1.0  0.40911  0.41574  0.30750  1.0000
  Au  Au391     1.0  0.45456  0.38766  0.29014  1.0000
  Au  Au392     1.0  0.31822  0.52809  0.34221  1.0000
  Au  Au393     1.0  0.36367  0.50000  0.32485  1.0000
  Au  Au394     1.0  0.40911  0.47191  0.30750  1.0000
  Au  Au395     1.0  0.45456  0.44383  0.29014  1.0000
  Au  Au396     1.0  0.36367  0.55617  0.32485  1.0000
  Au  Au397     1.0  0.40911  0.52809  0.30750  1.0000
  Au  Au398     1.0  0.45456  0.50000  0.29014  1.0000
  Au  Au399     1.0  0.40911  0.58426  0.30750  1.0000
  Au  Au400     1.0  0.45456  0.55617  0.29014  1.0000
  Au  Au401     1.0  0.45456  0.61234  0.29014  1.0000
  Au  Au402     1.0  0.65779  0.68178  0.47191  1.0000
  Au  Au403     1.0  0.67515  0.63633  0.44383  1.0000
  Au  Au404     1.0  0.69250  0.59089  0.41574  1.0000
  Au  Au405     1.0  0.70986  0.54544  0.38766  1.0000
  Au  Au406     1.0  0.65779  0.68178  0.52809  1.0000
  Au  Au407     1.0  0.67515  0.63633  0.50000  1.0000
  Au  Au408     1.0  0.69250  0.59089  0.47191  1.0000
  Au  Au409     1.0  0.70986  0.54544  0.44383  1.0000
  Au  Au410     1.0  0.67515  0.63633  0.55617  1.0000
  Au  Au411     1.0  0.69250  0.59089  0.52809  1.0000
  Au  Au412     1.0  0.70986  0.54544  0.50000  1.0000
  Au  Au413     1.0  0.69250  0.59089  0.58426  1.0000
  Au  Au414     1.0  0.70986  0.54544  0.55617  1.0000
  Au  Au415     1.0  0.70986  0.54544  0.61234  1.0000
  Au  Au416     1.0  0.34221  0.68178  0.47191  1.0000
  Au  Au417     1.0  0.32485  0.63633  0.44383  1.0000
  Au  Au418     1.0  0.30750  0.59089  0.41574  1.0000
  Au  Au419     1.0  0.29014  0.54544  0.38766  1.0000
  Au  Au420     1.0  0.34221  0.68178  0.52809  1.0000
  Au  Au421     1.0  0.32485  0.63633  0.50000  1.0000
  Au  Au422     1.0  0.30750  0.59089  0.47191  1.0000
  Au  Au423     1.0  0.29014  0.54544  0.44383  1.0000
  Au  Au424     1.0  0.32485  0.63633  0.55617  1.0000
  Au  Au425     1.0  0.30750  0.59089  0.52809  1.0000
  Au  Au426     1.0  0.29014  0.54544  0.50000  1.0000
  Au  Au427     1.0  0.30750  0.59089  0.58426  1.0000
  Au  Au428     1.0  0.29014  0.54544  0.55617  1.0000
  Au  Au429     1.0  0.29014  0.54544  0.61234  1.0000
  Au  Au430     1.0  0.65779  0.31822  0.47191  1.0000
  Au  Au431     1.0  0.67515  0.36367  0.44383  1.0000
  Au  Au432     1.0  0.69250  0.40911  0.41574  1.0000
  Au  Au433     1.0  0.70986  0.45456  0.38766  1.0000
  Au  Au434     1.0  0.65779  0.31822  0.52809  1.0000
  Au  Au435     1.0  0.67515  0.36367  0.50000  1.0000
  Au  Au436     1.0  0.69250  0.40911  0.47191  1.0000
  Au  Au437     1.0  0.70986  0.45456  0.44383  1.0000
  Au  Au438     1.0  0.67515  0.36367  0.55617  1.0000
  Au  Au439     1.0  0.69250  0.40911  0.52809  1.0000
  Au  Au440     1.0  0.70986  0.45456  0.50000  1.0000
  Au  Au441     1.0  0.69250  0.40911  0.58426  1.0000
  Au  Au442     1.0  0.70986  0.45456  0.55617  1.0000
  Au  Au443     1.0  0.70986  0.45456  0.61234  1.0000
  Au  Au444     1.0  0.34221  0.31822  0.47191  1.0000
  Au  Au445     1.0  0.32485  0.36367  0.44383  1.0000
  Au  Au446     1.0  0.30750  0.40911  0.41574  1.0000
  Au  Au447     1.0  0.29014  0.45456  0.38766  1.0000
  Au  Au448     1.0  0.34221  0.31822  0.52809  1.0000
  Au  Au449     1.0  0.32485  0.36367  0.50000  1.0000
  Au  Au450     1.0  0.30750  0.40911  0.47191  1.0000
  Au  Au451     1.0  0.29014  0.45456  0.44383  1.0000
  Au  Au452     1.0  0.32485  0.36367  0.55617  1.0000
  Au  Au453     1.0  0.30750  0.40911  0.52809  1.0000
  Au  Au454     1.0  0.29014  0.45456  0.50000  1.0000
  Au  Au455     1.0  0.30750  0.40911  0.58426  1.0000
  Au  Au456     1.0  0.29014  0.45456  0.55617  1.0000
  Au  Au457     1.0  0.29014  0.45456  0.61234  1.0000
  Au  Au458     1.0  0.47191  0.65779  0.68178  1.0000
  Au  Au459     1.0  0.44383  0.67515  0.63633  1.0000
  Au  Au460     1.0  0.41574  0.69250  0.59089  1.0000
  Au  Au461     1.0  0.38766  0.70986  0.54544  1.0000
  Au  Au462     1.0  0.52809  0.65779  0.68178  1.0000
  Au  Au463     1.0  0.50000  0.67515  0.63633  1.0000
  Au  Au464     1.0  0.47191  0.69250  0.59089  1.0000
  Au  Au465     1.0  0.44383  0.70986  0.54544  1.0000
  Au  Au466     1.0  0.55617  0.67515  0.63633  1.0000
  Au  Au467     1.0  0.52809  0.69250  0.59089  1.0000
  Au  Au468     1.0  0.50000  0.70986  0.54544  1.0000
  Au  Au469     1.0  0.58426  0.69250  0.59089  1.0000
  Au  Au470     1.0  0.55617  0.70986  0.54544  1.0000
  Au  Au471     1.0  0.61234  0.70986  0.54544  1.0000
  Au  Au472     1.0  0.47191  0.34221  0.68178  1.0000
  Au  Au473     1.0  0.44383  0.32485  0.63633  1.0000
  Au  Au474     1.0  0.41574  0.30750  0.59089  1.0000
  Au  Au475     1.0  0.38766  0.29014  0.54544  1.0000
  Au  Au476     1.0  0.52809  0.34221  0.68178  1.0000
  Au  Au477     1.0  0.50000  0.32485  0.63633  1.0000
  Au  Au478     1.0  0.47191  0.30750  0.59089  1.0000
  Au  Au479     1.0  0.44383  0.29014  0.54544  1.0000
  Au  Au480     1.0  0.55617  0.32485  0.63633  1.0000
  Au  Au481     1.0  0.52809  0.30750  0.59089  1.0000
  Au  Au482     1.0  0.50000  0.29014  0.54544  1.0000
  Au  Au483     1.0  0.58426  0.30750  0.59089  1.0000
  Au  Au484     1.0  0.55617  0.29014  0.54544  1.0000
  Au  Au485     1.0  0.61234  0.29014  0.54544  1.0000
  Au  Au486     1.0  0.47191  0.65779  0.31822  1.0000
  Au  Au487     1.0  0.44383  0.67515  0.36367  1.0000
  Au  Au488     1.0  0.41574  0.69250  0.40911  1.0000
  Au  Au489     1.0  0.38766  0.70986  0.45456  1.0000
  Au  Au490     1.0  0.52809  0.65779  0.31822  1.0000
  Au  Au491     1.0  0.50000  0.67515  0.36367  1.0000
  Au  Au492     1.0  0.47191  0.69250  0.40911  1.0000
  Au  Au493     1.0  0.44383  0.70986  0.45456  1.0000
  Au  Au494     1.0  0.55617  0.67515  0.36367  1.0000
  Au  Au495     1.0  0.52809  0.69250  0.40911  1.0000
  Au  Au496     1.0  0.50000  0.70986  0.45456  1.0000
  Au  Au497     1.0  0.58426  0.69250  0.40911  1.0000
  Au  Au498     1.0  0.55617  0.70986  0.45456  1.0000
  Au  Au499     1.0  0.61234  0.70986  0.45456  1.0000
  Au  Au500     1.0  0.47191  0.34221  0.31822  1.0000
  Au  Au501     1.0  0.44383  0.32485  0.36367  1.0000
  Au  Au502     1.0  0.41574  0.30750  0.40911  1.0000
  Au  Au503     1.0  0.38766  0.29014  0.45456  1.0000
  Au  Au504     1.0  0.52809  0.34221  0.31822  1.0000
  Au  Au505     1.0  0.50000  0.32485  0.36367  1.0000
  Au  Au506     1.0  0.47191  0.30750  0.40911  1.0000
  Au  Au507     1.0  0.44383  0.29014  0.45456  1.0000
  Au  Au508     1.0  0.55617  0.32485  0.36367  1.0000
  Au  Au509     1.0  0.52809  0.30750  0.40911  1.0000
  Au  Au510     1.0  0.50000  0.29014  0.45456  1.0000
  Au  Au511     1.0  0.58426  0.30750  0.40911  1.0000
  Au  Au512     1.0  0.55617  0.29014  0.45456  1.0000
  Au  Au513     1.0  0.61234  0.29014  0.45456  1.0000
  Au  Au514     1.0  0.66442  0.42647  0.62970  1.0000
  Au  Au515     1.0  0.66442  0.57353  0.62970  1.0000
  Au  Au516     1.0  0.64706  0.38103  0.60162  1.0000
  Au  Au517     1.0  0.64706  0.61897  0.60162  1.0000
  Au  Au518     1.0  0.62970  0.33558  0.57353  1.0000
  Au  Au519     1.0  0.62970  0.66442  0.57353  1.0000
  Au  Au520     1.0  0.61897  0.39838  0.64706  1.0000
  Au  Au521     1.0  0.61897  0.60162  0.64706  1.0000
  Au  Au522     1.0  0.60162  0.35294  0.61897  1.0000
  Au  Au523     1.0  0.60162  0.64706  0.61897  1.0000
  Au  Au524     1.0  0.57353  0.37030  0.66442  1.0000
  Au  Au525     1.0  0.57353  0.62970  0.66442  1.0000
  Au  Au526     1.0  0.66442  0.42647  0.37030  1.0000
  Au  Au527     1.0  0.66442  0.57353  0.37030  1.0000
  Au  Au528     1.0  0.64706  0.38103  0.39838  1.0000
  Au  Au529     1.0  0.64706  0.61897  0.39838  1.0000
  Au  Au530     1.0  0.62970  0.33558  0.42647  1.0000
  Au  Au531     1.0  0.62970  0.66442  0.42647  1.0000
  Au  Au532     1.0  0.61897  0.39838  0.35294  1.0000
  Au  Au533     1.0  0.61897  0.60162  0.35294  1.0000
  Au  Au534     1.0  0.60162  0.35294  0.38103  1.0000
  Au  Au535     1.0  0.60162  0.64706  0.38103  1.0000
  Au  Au536     1.0  0.57353  0.37030  0.33558  1.0000
  Au  Au537     1.0  0.57353  0.62970  0.33558  1.0000
  Au  Au538     1.0  0.33558  0.42647  0.62970  1.0000
  Au  Au539     1.0  0.33558  0.57353  0.62970  1.0000
  Au  Au540     1.0  0.35294  0.38103  0.60162  1.0000
  Au  Au541     1.0  0.35294  0.61897  0.60162  1.0000
  Au  Au542     1.0  0.37030  0.33558  0.57353  1.0000
  Au  Au543     1.0  0.37030  0.66442  0.57353  1.0000
  Au  Au544     1.0  0.38103  0.39838  0.64706  1.0000
  Au  Au545     1.0  0.38103  0.60162  0.64706  1.0000
  Au  Au546     1.0  0.39838  0.35294  0.61897  1.0000
  Au  Au547     1.0  0.39838  0.64706  0.61897  1.0000
  Au  Au548     1.0  0.42647  0.37030  0.66442  1.0000
  Au  Au549     1.0  0.42647  0.62970  0.66442  1.0000
  Au  Au550     1.0  0.33558  0.42647  0.37030  1.0000
  Au  Au551     1.0  0.33558  0.57353  0.37030  1.0000
  Au  Au552     1.0  0.35294  0.38103  0.39838  1.0000
  Au  Au553     1.0  0.35294  0.61897  0.39838  1.0000
  Au  Au554     1.0  0.37030  0.33558  0.42647  1.0000
  Au  Au555     1.0  0.37030  0.66442  0.42647  1.0000
  Au  Au556     1.0  0.38103  0.39838  0.35294  1.0000
  Au  Au557     1.0  0.38103  0.60162  0.35294  1.0000
  Au  Au558     1.0  0.39838  0.35294  0.38103  1.0000
  Au  Au559     1.0  0.39838  0.64706  0.38103  1.0000
  Au  Au560     1.0  0.42647  0.37030  0.33558  1.0000
  Au  Au561     1.0  0.42647  0.62970  0.33558  1.0000
  Au  Au562     1.0  0.77266  0.50000  0.33148  1.0000
  Au  Au563     1.0  0.77266  0.50000  0.38766  1.0000
  Au  Au564     1.0  0.77266  0.50000  0.44383  1.0000
  Au  Au565     1.0  0.77266  0.50000  0.50000  1.0000
  Au  Au566     1.0  0.77266  0.50000  0.55617  1.0000
  Au  Au567     1.0  0.77266  0.50000  0.61234  1.0000
  Au  Au568     1.0  0.77266  0.50000  0.66852  1.0000
  Au  Au569     1.0  0.22734  0.50000  0.33148  1.0000
  Au  Au570     1.0  0.22734  0.50000  0.38766  1.0000
  Au  Au571     1.0  0.22734  0.50000  0.44383  1.0000
  Au  Au572     1.0  0.22734  0.50000  0.50000  1.0000
  Au  Au573     1.0  0.22734  0.50000  0.55617  1.0000
  Au  Au574     1.0  0.22734  0.50000  0.61234  1.0000
  Au  Au575     1.0  0.22734  0.50000  0.66852  1.0000
  Au  Au576     1.0  0.33148  0.77266  0.50000  1.0000
  Au  Au577     1.0  0.38766  0.77266  0.50000  1.0000
  Au  Au578     1.0  0.44383  0.77266  0.50000  1.0000
  Au  Au579     1.0  0.50000  0.77266  0.50000  1.0000
  Au  Au580     1.0  0.55617  0.77266  0.50000  1.0000
  Au  Au581     1.0  0.61234  0.77266  0.50000  1.0000
  Au  Au582     1.0  0.66852  0.77266  0.50000  1.0000
  Au  Au583     1.0  0.33148  0.22734  0.50000  1.0000
  Au  Au584     1.0  0.38766  0.22734  0.50000  1.0000
  Au  Au585     1.0  0.44383  0.22734  0.50000  1.0000
  Au  Au586     1.0  0.50000  0.22734  0.50000  1.0000
  Au  Au587     1.0  0.55617  0.22734  0.50000  1.0000
  Au  Au588     1.0  0.61234  0.22734  0.50000  1.0000
  Au  Au589     1.0  0.66852  0.22734  0.50000  1.0000
  Au  Au590     1.0  0.50000  0.33148  0.77266  1.0000
  Au  Au591     1.0  0.50000  0.38766  0.77266  1.0000
  Au  Au592     1.0  0.50000  0.44383  0.77266  1.0000
  Au  Au593     1.0  0.50000  0.50000  0.77266  1.0000
  Au  Au594     1.0  0.50000  0.55617  0.77266  1.0000
  Au  Au595     1.0  0.50000  0.61234  0.77266  1.0000
  Au  Au596     1.0  0.50000  0.66852  0.77266  1.0000
  Au  Au597     1.0  0.50000  0.33148  0.22734  1.0000
  Au  Au598     1.0  0.50000  0.38766  0.22734  1.0000
  Au  Au599     1.0  0.50000  0.44383  0.22734  1.0000
  Au  Au600     1.0  0.50000  0.50000  0.22734  1.0000
  Au  Au601     1.0  0.50000  0.55617  0.22734  1.0000
  Au  Au602     1.0  0.50000  0.61234  0.22734  1.0000
  Au  Au603     1.0  0.50000  0.66852  0.22734  1.0000
  Au  Au604     1.0  0.72722  0.47191  0.68587  1.0000
  Au  Au605     1.0  0.68178  0.44383  0.70323  1.0000
  Au  Au606     1.0  0.63633  0.41574  0.72059  1.0000
  Au  Au607     1.0  0.59089  0.38766  0.73795  1.0000
  Au  Au608     1.0  0.54544  0.35957  0.75531  1.0000
  Au  Au609     1.0  0.72722  0.52809  0.68587  1.0000
  Au  Au610     1.0  0.68178  0.50000  0.70323  1.0000
  Au  Au611     1.0  0.63633  0.47191  0.72059  1.0000
  Au  Au612     1.0  0.59089  0.44383  0.73795  1.0000
  Au  Au613     1.0  0.54544  0.41574  0.75531  1.0000
  Au  Au614     1.0  0.68178  0.55617  0.70323  1.0000
  Au  Au615     1.0  0.63633  0.52809  0.72059  1.0000
  Au  Au616     1.0  0.59089  0.50000  0.73795  1.0000
  Au  Au617     1.0  0.54544  0.47191  0.75531  1.0000
  Au  Au618     1.0  0.63633  0.58426  0.72059  1.0000
  Au  Au619     1.0  0.59089  0.55617  0.73795  1.0000
  Au  Au620     1.0  0.54544  0.52809  0.75531  1.0000
  Au  Au621     1.0  0.59089  0.61234  0.73795  1.0000
  Au  Au622     1.0  0.54544  0.58426  0.75531  1.0000
  Au  Au623     1.0  0.54544  0.64043  0.75531  1.0000
  Au  Au624     1.0  0.72722  0.47191  0.31413  1.0000
  Au  Au625     1.0  0.68178  0.44383  0.29677  1.0000
  Au  Au626     1.0  0.63633  0.41574  0.27941  1.0000
  Au  Au627     1.0  0.59089  0.38766  0.26205  1.0000
  Au  Au628     1.0  0.54544  0.35957  0.24469  1.0000
  Au  Au629     1.0  0.72722  0.52809  0.31413  1.0000
  Au  Au630     1.0  0.68178  0.50000  0.29677  1.0000
  Au  Au631     1.0  0.63633  0.47191  0.27941  1.0000
  Au  Au632     1.0  0.59089  0.44383  0.26205  1.0000
  Au  Au633     1.0  0.54544  0.41574  0.24469  1.0000
  Au  Au634     1.0  0.68178  0.55617  0.29677  1.0000
  Au  Au635     1.0  0.63633  0.52809  0.27941  1.0000
  Au  Au636     1.0  0.59089  0.50000  0.26205  1.0000
  Au  Au637     1.0  0.54544  0.47191  0.24469  1.0000
  Au  Au638     1.0  0.63633  0.58426  0.27941  1.0000
  Au  Au639     1.0  0.59089  0.55617  0.26205  1.0000
  Au  Au640     1.0  0.54544  0.52809  0.24469  1.0000
  Au  Au641     1.0  0.59089  0.61234  0.26205  1.0000
  Au  Au642     1.0  0.54544  0.58426  0.24469  1.0000
  Au  Au643     1.0  0.54544  0.64043  0.24469  1.0000
  Au  Au644     1.0  0.27278  0.47191  0.68587  1.0000
  Au  Au645     1.0  0.31822  0.44383  0.70323  1.0000
  Au  Au646     1.0  0.36367  0.41574  0.72059  1.0000
  Au  Au647     1.0  0.40911  0.38766  0.73795  1.0000
  Au  Au648     1.0  0.45456  0.35957  0.75531  1.0000
  Au  Au649     1.0  0.27278  0.52809  0.68587  1.0000
  Au  Au650     1.0  0.31822  0.50000  0.70323  1.0000
  Au  Au651     1.0  0.36367  0.47191  0.72059  1.0000
  Au  Au652     1.0  0.40911  0.44383  0.73795  1.0000
  Au  Au653     1.0  0.45456  0.41574  0.75531  1.0000
  Au  Au654     1.0  0.31822  0.55617  0.70323  1.0000
  Au  Au655     1.0  0.36367  0.52809  0.72059  1.0000
  Au  Au656     1.0  0.40911  0.50000  0.73795  1.0000
  Au  Au657     1.0  0.45456  0.47191  0.75531  1.0000
  Au  Au658     1.0  0.36367  0.58426  0.72059  1.0000
  Au  Au659     1.0  0.40911  0.55617  0.73795  1.0000
  Au  Au660     1.0  0.45456  0.52809  0.75531  1.0000
  Au  Au661     1.0  0.40911  0.61234  0.73795  1.0000
  Au  Au662     1.0  0.45456  0.58426  0.75531  1.0000
  Au  Au663     1.0  0.45456  0.64043  0.75531  1.0000
  Au  Au664     1.0  0.27278  0.47191  0.31413  1.0000
  Au  Au665     1.0  0.31822  0.44383  0.29677  1.0000
  Au  Au666     1.0  0.36367  0.41574  0.27941  1.0000
  Au  Au667     1.0  0.40911  0.38766  0.26205  1.0000
  Au  Au668     1.0  0.45456  0.35957  0.24469  1.0000
  Au  Au669     1.0  0.27278  0.52809  0.31413  1.0000
  Au  Au670     1.0  0.31822  0.50000  0.29677  1.0000
  Au  Au671     1.0  0.36367  0.47191  0.27941  1.0000
  Au  Au672     1.0  0.40911  0.44383  0.26205  1.0000
  Au  Au673     1.0  0.45456  0.41574  0.24469  1.0000
  Au  Au674     1.0  0.31822  0.55617  0.29677  1.0000
  Au  Au675     1.0  0.36367  0.52809  0.27941  1.0000
  Au  Au676     1.0  0.40911  0.50000  0.26205  1.0000
  Au  Au677     1.0  0.45456  0.47191  0.24469  1.0000
  Au  Au678     1.0  0.36367  0.58426  0.27941  1.0000
  Au  Au679     1.0  0.40911  0.55617  0.26205  1.0000
  Au  Au680     1.0  0.45456  0.52809  0.24469  1.0000
  Au  Au681     1.0  0.40911  0.61234  0.26205  1.0000
  Au  Au682     1.0  0.45456  0.58426  0.24469  1.0000
  Au  Au683     1.0  0.45456  0.64043  0.24469  1.0000
  Au  Au684     1.0  0.68587  0.72722  0.47191  1.0000
  Au  Au685     1.0  0.70323  0.68178  0.44383  1.0000
  Au  Au686     1.0  0.72059  0.63633  0.41574  1.0000
  Au  Au687     1.0  0.73795  0.59089  0.38766  1.0000
  Au  Au688     1.0  0.75531  0.54544  0.35957  1.0000
  Au  Au689     1.0  0.68587  0.72722  0.52809  1.0000
  Au  Au690     1.0  0.70323  0.68178  0.50000  1.0000
  Au  Au691     1.0  0.72059  0.63633  0.47191  1.0000
  Au  Au692     1.0  0.73795  0.59089  0.44383  1.0000
  Au  Au693     1.0  0.75531  0.54544  0.41574  1.0000
  Au  Au694     1.0  0.70323  0.68178  0.55617  1.0000
  Au  Au695     1.0  0.72059  0.63633  0.52809  1.0000
  Au  Au696     1.0  0.73795  0.59089  0.50000  1.0000
  Au  Au697     1.0  0.75531  0.54544  0.47191  1.0000
  Au  Au698     1.0  0.72059  0.63633  0.58426  1.0000
  Au  Au699     1.0  0.73795  0.59089  0.55617  1.0000
  Au  Au700     1.0  0.75531  0.54544  0.52809  1.0000
  Au  Au701     1.0  0.73795  0.59089  0.61234  1.0000
  Au  Au702     1.0  0.75531  0.54544  0.58426  1.0000
  Au  Au703     1.0  0.75531  0.54544  0.64043  1.0000
  Au  Au704     1.0  0.31413  0.72722  0.47191  1.0000
  Au  Au705     1.0  0.29677  0.68178  0.44383  1.0000
  Au  Au706     1.0  0.27941  0.63633  0.41574  1.0000
  Au  Au707     1.0  0.26205  0.59089  0.38766  1.0000
  Au  Au708     1.0  0.24469  0.54544  0.35957  1.0000
  Au  Au709     1.0  0.31413  0.72722  0.52809  1.0000
  Au  Au710     1.0  0.29677  0.68178  0.50000  1.0000
  Au  Au711     1.0  0.27941  0.63633  0.47191  1.0000
  Au  Au712     1.0  0.26205  0.59089  0.44383  1.0000
  Au  Au713     1.0  0.24469  0.54544  0.41574  1.0000
  Au  Au714     1.0  0.29677  0.68178  0.55617  1.0000
  Au  Au715     1.0  0.27941  0.63633  0.52809  1.0000
  Au  Au716     1.0  0.26205  0.59089  0.50000  1.0000
  Au  Au717     1.0  0.24469  0.54544  0.47191  1.0000
  Au  Au718     1.0  0.27941  0.63633  0.58426  1.0000
  Au  Au719     1.0  0.26205  0.59089  0.55617  1.0000
  Au  Au720     1.0  0.24469  0.54544  0.52809  1.0000
  Au  Au721     1.0  0.26205  0.59089  0.61234  1.0000
  Au  Au722     1.0  0.24469  0.54544  0.58426  1.0000
  Au  Au723     1.0  0.24469  0.54544  0.64043  1.0000
  Au  Au724     1.0  0.68587  0.27278  0.47191  1.0000
  Au  Au725     1.0  0.70323  0.31822  0.44383  1.0000
  Au  Au726     1.0  0.72059  0.36367  0.41574  1.0000
  Au  Au727     1.0  0.73795  0.40911  0.38766  1.0000
  Au  Au728     1.0  0.75531  0.45456  0.35957  1.0000
  Au  Au729     1.0  0.68587  0.27278  0.52809  1.0000
  Au  Au730     1.0  0.70323  0.31822  0.50000  1.0000
  Au  Au731     1.0  0.72059  0.36367  0.47191  1.0000
  Au  Au732     1.0  0.73795  0.40911  0.44383  1.0000
  Au  Au733     1.0  0.75531  0.45456  0.41574  1.0000
  Au  Au734     1.0  0.70323  0.31822  0.55617  1.0000
  Au  Au735     1.0  0.72059  0.36367  0.52809  1.0000
  Au  Au736     1.0  0.73795  0.40911  0.50000  1.0000
  Au  Au737     1.0  0.75531  0.45456  0.47191  1.0000
  Au  Au738     1.0  0.72059  0.36367  0.58426  1.0000
  Au  Au739     1.0  0.73795  0.40911  0.55617  1.0000
  Au  Au740     1.0  0.75531  0.45456  0.52809  1.0000
  Au  Au741     1.0  0.73795  0.40911  0.61234  1.0000
  Au  Au742     1.0  0.75531  0.45456  0.58426  1.0000
  Au  Au743     1.0  0.75531  0.45456  0.64043  1.0000
  Au  Au744     1.0  0.31413  0.27278  0.47191  1.0000
  Au  Au745     1.0  0.29677  0.31822  0.44383  1.0000
  Au  Au746     1.0  0.27941  0.36367  0.41574  1.0000
  Au  Au747     1.0  0.26205  0.40911  0.38766  1.0000
  Au  Au748     1.0  0.24469  0.45456  0.35957  1.0000
  Au  Au749     1.0  0.31413  0.27278  0.52809  1.0000
  Au  Au750     1.0  0.29677  0.31822  0.50000  1.0000
  Au  Au751     1.0  0.27941  0.36367  0.47191  1.0000
  Au  Au752     1.0  0.26205  0.40911  0.44383  1.0000
  Au  Au753     1.0  0.24469  0.45456  0.41574  1.0000
  Au  Au754     1.0  0.29677  0.31822  0.55617  1.0000
  Au  Au755     1.0  0.27941  0.36367  0.52809  1.0000
  Au  Au756     1.0  0.26205  0.40911  0.50000  1.0000
  Au  Au757     1.0  0.24469  0.45456  0.47191  1.0000
  Au  Au758     1.0  0.27941  0.36367  0.58426  1.0000
  Au  Au759     1.0  0.26205  0.40911  0.55617  1.0000
  Au  Au760     1.0  0.24469  0.45456  0.52809  1.0000
  Au  Au761     1.0  0.26205  0.40911  0.61234  1.0000
  Au  Au762     1.0  0.24469  0.45456  0.58426  1.0000
  Au  Au763     1.0  0.24469  0.45456  0.64043  1.0000
  Au  Au764     1.0  0.47191  0.68587  0.72722  1.0000
  Au  Au765     1.0  0.44383  0.70323  0.68178  1.0000
  Au  Au766     1.0  0.41574  0.72059  0.63633  1.0000
  Au  Au767     1.0  0.38766  0.73795  0.59089  1.0000
  Au  Au768     1.0  0.35957  0.75531  0.54544  1.0000
  Au  Au769     1.0  0.52809  0.68587  0.72722  1.0000
  Au  Au770     1.0  0.50000  0.70323  0.68178  1.0000
  Au  Au771     1.0  0.47191  0.72059  0.63633  1.0000
  Au  Au772     1.0  0.44383  0.73795  0.59089  1.0000
  Au  Au773     1.0  0.41574  0.75531  0.54544  1.0000
  Au  Au774     1.0  0.55617  0.70323  0.68178  1.0000
  Au  Au775     1.0  0.52809  0.72059  0.63633  1.0000
  Au  Au776     1.0  0.50000  0.73795  0.59089  1.0000
  Au  Au777     1.0  0.47191  0.75531  0.54544  1.0000
  Au  Au778     1.0  0.58426  0.72059  0.63633  1.0000
  Au  Au779     1.0  0.55617  0.73795  0.59089  1.0000
  Au  Au780     1.0  0.52809  0.75531  0.54544  1.0000
  Au  Au781     1.0  0.61234  0.73795  0.59089  1.0000
  Au  Au782     1.0  0.58426  0.75531  0.54544  1.0000
  Au  Au783     1.0  0.64043  0.75531  0.54544  1.0000
  Au  Au784     1.0  0.47191  0.31413  0.72722  1.0000
  Au  Au785     1.0  0.44383  0.29677  0.68178  1.0000
  Au  Au786     1.0  0.41574  0.27941  0.63633  1.0000
  Au  Au787     1.0  0.38766  0.26205  0.59089  1.0000
  Au  Au788     1.0  0.35957  0.24469  0.54544  1.0000
  Au  Au789     1.0  0.52809  0.31413  0.72722  1.0000
  Au  Au790     1.0  0.50000  0.29677  0.68178  1.0000
  Au  Au791     1.0  0.47191  0.27941  0.63633  1.0000
  Au  Au792     1.0  0.44383  0.26205  0.59089  1.0000
  Au  Au793     1.0  0.41574  0.24469  0.54544  1.0000
  Au  Au794     1.0  0.55617  0.29677  0.68178  1.0000
  Au  Au795     1.0  0.52809  0.27941  0.63633  1.0000
  Au  Au796     1.0  0.50000  0.26205  0.59089  1.0000
  Au  Au797     1.0  0.47191  0.24469  0.54544  1.0000
  Au  Au798     1.0  0.58426  0.27941  0.63633  1.0000
  Au  Au799     1.0  0.55617  0.26205  0.59089  1.0000
  Au  Au800     1.0  0.52809  0.24469  0.54544  1.0000
  Au  Au801     1.0  0.61234  0.26205  0.59089  1.0000
  Au  Au802     1.0  0.58426  0.24469  0.54544  1.0000
  Au  Au803     1.0  0.64043  0.24469  0.54544  1.0000
  Au  Au804     1.0  0.47191  0.68587  0.27278  1.0000
  Au  Au805     1.0  0.44383  0.70323  0.31822  1.0000
  Au  Au806     1.0  0.41574  0.72059  0.36367  1.0000
  Au  Au807     1.0  0.38766  0.73795  0.40911  1.0000
  Au  Au808     1.0  0.35957  0.75531  0.45456  1.0000
  Au  Au809     1.0  0.52809  0.68587  0.27278  1.0000
  Au  Au810     1.0  0.50000  0.70323  0.31822  1.0000
  Au  Au811     1.0  0.47191  0.72059  0.36367  1.0000
  Au  Au812     1.0  0.44383  0.73795  0.40911  1.0000
  Au  Au813     1.0  0.41574  0.75531  0.45456  1.0000
  Au  Au814     1.0  0.55617  0.70323  0.31822  1.0000
  Au  Au815     1.0  0.52809  0.72059  0.36367  1.0000
  Au  Au816     1.0  0.50000  0.73795  0.40911  1.0000
  Au  Au817     1.0  0.47191  0.75531  0.45456  1.0000
  Au  Au818     1.0  0.58426  0.72059  0.36367  1.0000
  Au  Au819     1.0  0.55617  0.73795  0.40911  1.0000
  Au  Au820     1.0  0.52809  0.75531  0.45456  1.0000
  Au  Au821     1.0  0.61234  0.73795  0.40911  1.0000
  Au  Au822     1.0  0.58426  0.75531  0.45456  1.0000
  Au  Au823     1.0  0.64043  0.75531  0.45456  1.0000
  Au  Au824     1.0  0.47191  0.31413  0.27278  1.0000
  Au  Au825     1.0  0.44383  0.29677  0.31822  1.0000
  Au  Au826     1.0  0.41574  0.27941  0.36367  1.0000
  Au  Au827     1.0  0.38766  0.26205  0.40911  1.0000
  Au  Au828     1.0  0.35957  0.24469  0.45456  1.0000
  Au  Au829     1.0  0.52809  0.31413  0.27278  1.0000
  Au  Au830     1.0  0.50000  0.29677  0.31822  1.0000
  Au  Au831     1.0  0.47191  0.27941  0.36367  1.0000
  Au  Au832     1.0  0.44383  0.26205  0.40911  1.0000
  Au  Au833     1.0  0.41574  0.24469  0.45456  1.0000
  Au  Au834     1.0  0.55617  0.29677  0.31822  1.0000
  Au  Au835     1.0  0.52809  0.27941  0.36367  1.0000
  Au  Au836     1.0  0.50000  0.26205  0.40911  1.0000
  Au  Au837     1.0  0.47191  0.24469  0.45456  1.0000
  Au  Au838     1.0  0.58426  0.27941  0.36367  1.0000
  Au  Au839     1.0  0.55617  0.26205  0.40911  1.0000
  Au  Au840     1.0  0.52809  0.24469  0.45456  1.0000
  Au  Au841     1.0  0.61234  0.26205  0.40911  1.0000
  Au  Au842     1.0  0.58426  0.24469  0.45456  1.0000
  Au  Au843     1.0  0.64043  0.24469  0.45456  1.0000
  Au  Au844     1.0  0.70986  0.42647  0.65779  1.0000
  Au  Au845     1.0  0.70986  0.57353  0.65779  1.0000
  Au  Au846     1.0  0.69250  0.38103  0.62970  1.0000
  Au  Au847     1.0  0.69250  0.61897  0.62970  1.0000
  Au  Au848     1.0  0.67515  0.33558  0.60162  1.0000
  Au  Au849     1.0  0.67515  0.66442  0.60162  1.0000
  Au  Au850     1.0  0.65779  0.29014  0.57353  1.0000
  Au  Au851     1.0  0.65779  0.70986  0.57353  1.0000
  Au  Au852     1.0  0.66442  0.39838  0.67515  1.0000
  Au  Au853     1.0  0.66442  0.60162  0.67515  1.0000
  Au  Au854     1.0  0.64706  0.35294  0.64706  1.0000
  Au  Au855     1.0  0.64706  0.64706  0.64706  1.0000
  Au  Au856     1.0  0.62970  0.30750  0.61897  1.0000
  Au  Au857     1.0  0.62970  0.69250  0.61897  1.0000
  Au  Au858     1.0  0.61897  0.37030  0.69250  1.0000
  Au  Au859     1.0  0.61897  0.62970  0.69250  1.0000
  Au  Au860     1.0  0.60162  0.32485  0.66442  1.0000
  Au  Au861     1.0  0.60162  0.67515  0.66442  1.0000
  Au  Au862     1.0  0.57353  0.34221  0.70986  1.0000
  Au  Au863     1.0  0.57353  0.65779  0.70986  1.0000
  Au  Au864     1.0  0.70986  0.42647  0.34221  1.0000
  Au  Au865     1.0  0.70986  0.57353  0.34221  1.0000
  Au  Au866     1.0  0.69250  0.38103  0.37030  1.0000
  Au  Au867     1.0  0.69250  0.61897  0.37030  1.0000
  Au  Au868     1.0  0.67515  0.33558  0.39838  1.0000
  Au  Au869     1.0  0.67515  0.66442  0.39838  1.0000
  Au  Au870     1.0  0.65779  0.29014  0.42647  1.0000
  Au  Au871     1.0  0.65779  0.70986  0.42647  1.0000
  Au  Au872     1.0  0.66442  0.39838  0.32485  1.0000
  Au  Au873     1.0  0.66442  0.60162  0.32485  1.0000
  Au  Au874     1.0  0.64706  0.35294  0.35294  1.0000
  Au  Au875     1.0  0.64706  0.64706  0.35294  1.0000
  Au  Au876     1.0  0.62970  0.30750  0.38103  1.0000
  Au  Au877     1.0  0.62970  0.69250  0.38103  1.0000
  Au  Au878     1.0  0.61897  0.37030  0.30750  1.0000
  Au  Au879     1.0  0.61897  0.62970  0.30750  1.0000
  Au  Au880     1.0  0.60162  0.32485  0.33558  1.0000
  Au  Au881     1.0  0.60162  0.67515  0.33558  1.0000
  Au  Au882     1.0  0.57353  0.34221  0.29014  1.0000
  Au  Au883     1.0  0.57353  0.65779  0.29014  1.0000
  Au  Au884     1.0  0.29014  0.42647  0.65779  1.0000
  Au  Au885     1.0  0.29014  0.57353  0.65779  1.0000
  Au  Au886     1.0  0.30750  0.38103  0.62970  1.0000
  Au  Au887     1.0  0.30750  0.61897  0.62970  1.0000
  Au  Au888     1.0  0.32485  0.33558  0.60162  1.0000
  Au  Au889     1.0  0.32485  0.66442  0.60162  1.0000
  Au  Au890     1.0  0.34221  0.29014  0.57353  1.0000
  Au  Au891     1.0  0.34221  0.70986  0.57353  1.0000
  Au  Au892     1.0  0.33558  0.39838  0.67515  1.0000
  Au  Au893     1.0  0.33558  0.60162  0.67515  1.0000
  Au  Au894     1.0  0.35294  0.35294  0.64706  1.0000
  Au  Au895     1.0  0.35294  0.64706  0.64706  1.0000
  Au  Au896     1.0  0.37030  0.30750  0.61897  1.0000
  Au  Au897     1.0  0.37030  0.69250  0.61897  1.0000
  Au  Au898     1.0  0.38103  0.37030  0.69250  1.0000
  Au  Au899     1.0  0.38103  0.62970  0.69250  1.0000
  Au  Au900     1.0  0.39838  0.32485  0.66442  1.0000
  Au  Au901     1.0  0.39838  0.67515  0.66442  1.0000
  Au  Au902     1.0  0.42647  0.34221  0.70986  1.0000
  Au  Au903     1.0  0.42647  0.65779  0.70986  1.0000
  Au  Au904     1.0  0.29014  0.42647  0.34221  1.0000
  Au  Au905     1.0  0.29014  0.57353  0.34221  1.0000
  Au  Au906     1.0  0.30750  0.38103  0.37030  1.0000
  Au  Au907     1.0  0.30750  0.61897  0.37030  1.0000
  Au  Au908     1.0  0.32485  0.33558  0.39838  1.0000
  Au  Au909     1.0  0.32485  0.66442  0.39838  1.0000
  Au  Au910     1.0  0.34221  0.29014  0.42647  1.0000
  Au  Au911     1.0  0.34221  0.70986  0.42647  1.0000
  Au  Au912     1.0  0.33558  0.39838  0.32485  1.0000
  Au  Au913     1.0  0.33558  0.60162  0.32485  1.0000
  Au  Au914     1.0  0.35294  0.35294  0.35294  1.0000
  Au  Au915     1.0  0.35294  0.64706  0.35294  1.0000
  Au  Au916     1.0  0.37030  0.30750  0.38103  1.0000
  Au  Au917     1.0  0.37030  0.69250  0.38103  1.0000
  Au  Au918     1.0  0.38103  0.37030  0.30750  1.0000
  Au  Au919     1.0  0.38103  0.62970  0.30750  1.0000
  Au  Au920     1.0  0.39838  0.32485  0.33558  1.0000
  Au  Au921     1.0  0.39838  0.67515  0.33558  1.0000
  Au  Au922     1.0  0.42647  0.34221  0.29014  1.0000
  Au  Au923     1.0  0.42647  0.65779  0.29014  1.0000
  Au  Au924     1.0  0.81811  0.50000  0.30340  1.0000
  Au  Au925     1.0  0.81811  0.50000  0.35957  1.0000
  Au  Au926     1.0  0.81811  0.50000  0.41574  1.0000
  Au  Au927     1.0  0.81811  0.50000  0.47191  1.0000
  Au  Au928     1.0  0.81811  0.50000  0.52809  1.0000
  Au  Au929     1.0  0.81811  0.50000  0.58426  1.0000
  Au  Au930     1.0  0.81811  0.50000  0.64043  1.0000
  Au  Au931     1.0  0.81811  0.50000  0.69660  1.0000
  Au  Au932     1.0  0.18189  0.50000  0.30340  1.0000
  Au  Au933     1.0  0.18189  0.50000  0.35957  1.0000
  Au  Au934     1.0  0.18189  0.50000  0.41574  1.0000
  Au  Au935     1.0  0.18189  0.50000  0.47191  1.0000
  Au  Au936     1.0  0.18189  0.50000  0.52809  1.0000
  Au  Au937     1.0  0.18189  0.50000  0.58426  1.0000
  Au  Au938     1.0  0.18189  0.50000  0.64043  1.0000
  Au  Au939     1.0  0.18189  0.50000  0.69660  1.0000
  Au  Au940     1.0  0.30340  0.81811  0.50000  1.0000
  Au  Au941     1.0  0.35957  0.81811  0.50000  1.0000
  Au  Au942     1.0  0.41574  0.81811  0.50000  1.0000
  Au  Au943     1.0  0.47191  0.81811  0.50000  1.0000
  Au  Au944     1.0  0.52809  0.81811  0.50000  1.0000
  Au  Au945     1.0  0.58426  0.81811  0.50000  1.0000
  Au  Au946     1.0  0.64043  0.81811  0.50000  1.0000
  Au  Au947     1.0  0.69660  0.81811  0.50000  1.0000
  Au  Au948     1.0  0.30340  0.18189  0.50000  1.0000
  Au  Au949     1.0  0.35957  0.18189  0.50000  1.0000
  Au  Au950     1.0  0.41574  0.18189  0.50000  1.0000
  Au  Au951     1.0  0.47191  0.18189  0.50000  1.0000
  Au  Au952     1.0  0.52809  0.18189  0.50000  1.0000
  Au  Au953     1.0  0.58426  0.18189  0.50000  1.0000
  Au  Au954     1.0  0.64043  0.18189  0.50000  1.0000
  Au  Au955     1.0  0.69660  0.18189  0.50000  1.0000
  Au  Au956     1.0  0.50000  0.30340  0.81811  1.0000
  Au  Au957     1.0  0.50000  0.35957  0.81811  1.0000
  Au  Au958     1.0  0.50000  0.41574  0.81811  1.0000
  Au  Au959     1.0  0.50000  0.47191  0.81811  1.0000
  Au  Au960     1.0  0.50000  0.52809  0.81811  1.0000
  Au  Au961     1.0  0.50000  0.58426  0.81811  1.0000
  Au  Au962     1.0  0.50000  0.64043  0.81811  1.0000
  Au  Au963     1.0  0.50000  0.69660  0.81811  1.0000
  Au  Au964     1.0  0.50000  0.30340  0.18189  1.0000
  Au  Au965     1.0  0.50000  0.35957  0.18189  1.0000
  Au  Au966     1.0  0.50000  0.41574  0.18189  1.0000
  Au  Au967     1.0  0.50000  0.47191  0.18189  1.0000
  Au  Au968     1.0  0.50000  0.52809  0.18189  1.0000
  Au  Au969     1.0  0.50000  0.58426  0.18189  1.0000
  Au  Au970     1.0  0.50000  0.64043  0.18189  1.0000
  Au  Au971     1.0  0.50000  0.69660  0.18189  1.0000
  Au  Au972     1.0  0.77266  0.47191  0.71396  1.0000
  Au  Au973     1.0  0.72722  0.44383  0.73132  1.0000
  Au  Au974     1.0  0.68178  0.41574  0.74868  1.0000
  Au  Au975     1.0  0.63633  0.38766  0.76603  1.0000
  Au  Au976     1.0  0.59089  0.35957  0.78339  1.0000
  Au  Au977     1.0  0.54544  0.33148  0.80075  1.0000
  Au  Au978     1.0  0.77266  0.52809  0.71396  1.0000
  Au  Au979     1.0  0.72722  0.50000  0.73132  1.0000
  Au  Au980     1.0  0.68178  0.47191  0.74868  1.0000
  Au  Au981     1.0  0.63633  0.44383  0.76603  1.0000
  Au  Au982     1.0  0.59089  0.41574  0.78339  1.0000
  Au  Au983     1.0  0.54544  0.38766  0.80075  1.0000
  Au  Au984     1.0  0.72722  0.55617  0.73132  1.0000
  Au  Au985     1.0  0.68178  0.52809  0.74868  1.0000
  Au  Au986     1.0  0.63633  0.50000  0.76603  1.0000
  Au  Au987     1.0  0.59089  0.47191  0.78339  1.0000
  Au  Au988     1.0  0.54544  0.44383  0.80075  1.0000
  Au  Au989     1.0  0.68178  0.58426  0.74868  1.0000
  Au  Au990     1.0  0.63633  0.55617  0.76603  1.0000
  Au  Au991     1.0  0.59089  0.52809  0.78339  1.0000
  Au  Au992     1.0  0.54544  0.50000  0.80075  1.0000
  Au  Au993     1.0  0.63633  0.61234  0.76603  1.0000
  Au  Au994     1.0  0.59089  0.58426  0.78339  1.0000
  Au  Au995     1.0  0.54544  0.55617  0.80075  1.0000
  Au  Au996     1.0  0.59089  0.64043  0.78339  1.0000
  Au  Au997     1.0  0.54544  0.61234  0.80075  1.0000
  Au  Au998     1.0  0.54544  0.66852  0.80075  1.0000
  Au  Au999     1.0  0.77266  0.47191  0.28604  1.0000
  Au  Au1000    1.0  0.72722  0.44383  0.26868  1.0000
  Au  Au1001    1.0  0.68178  0.41574  0.25132  1.0000
  Au  Au1002    1.0  0.63633  0.38766  0.23397  1.0000
  Au  Au1003    1.0  0.59089  0.35957  0.21661  1.0000
  Au  Au1004    1.0  0.54544  0.33148  0.19925  1.0000
  Au  Au1005    1.0  0.77266  0.52809  0.28604  1.0000
  Au  Au1006    1.0  0.72722  0.50000  0.26868  1.0000
  Au  Au1007    1.0  0.68178  0.47191  0.25132  1.0000
  Au  Au1008    1.0  0.63633  0.44383  0.23397  1.0000
  Au  Au1009    1.0  0.59089  0.41574  0.21661  1.0000
  Au  Au1010    1.0  0.54544  0.38766  0.19925  1.0000
  Au  Au1011    1.0  0.72722  0.55617  0.26868  1.0000
  Au  Au1012    1.0  0.68178  0.52809  0.25132  1.0000
  Au  Au1013    1.0  0.63633  0.50000  0.23397  1.0000
  Au  Au1014    1.0  0.59089  0.47191  0.21661  1.0000
  Au  Au1015    1.0  0.54544  0.44383  0.19925  1.0000
  Au  Au1016    1.0  0.68178  0.58426  0.25132  1.0000
  Au  Au1017    1.0  0.63633  0.55617  0.23397  1.0000
  Au  Au1018    1.0  0.59089  0.52809  0.21661  1.0000
  Au  Au1019    1.0  0.54544  0.50000  0.19925  1.0000
  Au  Au1020    1.0  0.63633  0.61234  0.23397  1.0000
  Au  Au1021    1.0  0.59089  0.58426  0.21661  1.0000
  Au  Au1022    1.0  0.54544  0.55617  0.19925  1.0000
  Au  Au1023    1.0  0.59089  0.64043  0.21661  1.0000
  Au  Au1024    1.0  0.54544  0.61234  0.19925  1.0000
  Au  Au1025    1.0  0.54544  0.66852  0.19925  1.0000
  Au  Au1026    1.0  0.22734  0.47191  0.71396  1.0000
  Au  Au1027    1.0  0.27278  0.44383  0.73132  1.0000
  Au  Au1028    1.0  0.31822  0.41574  0.74868  1.0000
  Au  Au1029    1.0  0.36367  0.38766  0.76603  1.0000
  Au  Au1030    1.0  0.40911  0.35957  0.78339  1.0000
  Au  Au1031    1.0  0.45456  0.33148  0.80075  1.0000
  Au  Au1032    1.0  0.22734  0.52809  0.71396  1.0000
  Au  Au1033    1.0  0.27278  0.50000  0.73132  1.0000
  Au  Au1034    1.0  0.31822  0.47191  0.74868  1.0000
  Au  Au1035    1.0  0.36367  0.44383  0.76603  1.0000
  Au  Au1036    1.0  0.40911  0.41574  0.78339  1.0000
  Au  Au1037    1.0  0.45456  0.38766  0.80075  1.0000
  Au  Au1038    1.0  0.27278  0.55617  0.73132  1.0000
  Au  Au1039    1.0  0.31822  0.52809  0.74868  1.0000
  Au  Au1040    1.0  0.36367  0.50000  0.76603  1.0000
  Au  Au1041    1.0  0.40911  0.47191  0.78339  1.0000
  Au  Au1042    1.0  0.45456  0.44383  0.80075  1.0000
  Au  Au1043    1.0  0.31822  0.58426  0.74868  1.0000
  Au  Au1044    1.0  0.36367  0.55617  0.76603  1.0000
  Au  Au1045    1.0  0.40911  0.52809  0.78339  1.0000
  Au  Au1046    1.0  0.45456  0.50000  0.80075  1.0000
  Au  Au1047    1.0  0.36367  0.61234  0.76603  1.0000
  Au  Au1048    1.0  0.40911  0.58426  0.78339  1.0000
  Au  Au1049    1.0  0.45456  0.55617  0.80075  1.0000
  Au  Au1050    1.0  0.40911  0.64043  0.78339  1.0000
  Au  Au1051    1.0  0.45456  0.61234  0.80075  1.0000
  Au  Au1052    1.0  0.45456  0.66852  0.80075  1.0000
  Au  Au1053    1.0  0.22734  0.47191  0.28604  1.0000
  Au  Au1054    1.0  0.27278  0.44383  0.26868  1.0000
  Au  Au1055    1.0  0.31822  0.41574  0.25132  1.0000
  Au  Au1056    1.0  0.36367  0.38766  0.23397  1.0000
  Au  Au1057    1.0  0.40911  0.35957  0.21661  1.0000
  Au  Au1058    1.0  0.45456  0.33148  0.19925  1.0000
  Au  Au1059    1.0  0.22734  0.52809  0.28604  1.0000
  Au  Au1060    1.0  0.27278  0.50000  0.26868  1.0000
  Au  Au1061    1.0  0.31822  0.47191  0.25132  1.0000
  Au  Au1062    1.0  0.36367  0.44383  0.23397  1.0000
  Au  Au1063    1.0  0.40911  0.41574  0.21661  1.0000
  Au  Au1064    1.0  0.45456  0.38766  0.19925  1.0000
  Au  Au1065    1.0  0.27278  0.55617  0.26868  1.0000
  Au  Au1066    1.0  0.31822  0.52809  0.25132  1.0000
  Au  Au1067    1.0  0.36367  0.50000  0.23397  1.0000
  Au  Au1068    1.0  0.40911  0.47191  0.21661  1.0000
  Au  Au1069    1.0  0.45456  0.44383  0.19925  1.0000
  Au  Au1070    1.0  0.31822  0.58426  0.25132  1.0000
  Au  Au1071    1.0  0.36367  0.55617  0.23397  1.0000
  Au  Au1072    1.0  0.40911  0.52809  0.21661  1.0000
  Au  Au1073    1.0  0.45456  0.50000  0.19925  1.0000
  Au  Au1074    1.0  0.36367  0.61234  0.23397  1.0000
  Au  Au1075    1.0  0.40911  0.58426  0.21661  1.0000
  Au  Au1076    1.0  0.45456  0.55617  0.19925  1.0000
  Au  Au1077    1.0  0.40911  0.64043  0.21661  1.0000
  Au  Au1078    1.0  0.45456  0.61234  0.19925  1.0000
  Au  Au1079    1.0  0.45456  0.66852  0.19925  1.0000
  Au  Au1080    1.0  0.71396  0.77266  0.47191  1.0000
  Au  Au1081    1.0  0.73132  0.72722  0.44383  1.0000
  Au  Au1082    1.0  0.74868  0.68178  0.41574  1.0000
  Au  Au1083    1.0  0.76603  0.63633  0.38766  1.0000
  Au  Au1084    1.0  0.78339  0.59089  0.35957  1.0000
  Au  Au1085    1.0  0.80075  0.54544  0.33148  1.0000
  Au  Au1086    1.0  0.71396  0.77266  0.52809  1.0000
  Au  Au1087    1.0  0.73132  0.72722  0.50000  1.0000
  Au  Au1088    1.0  0.74868  0.68178  0.47191  1.0000
  Au  Au1089    1.0  0.76603  0.63633  0.44383  1.0000
  Au  Au1090    1.0  0.78339  0.59089  0.41574  1.0000
  Au  Au1091    1.0  0.80075  0.54544  0.38766  1.0000
  Au  Au1092    1.0  0.73132  0.72722  0.55617  1.0000
  Au  Au1093    1.0  0.74868  0.68178  0.52809  1.0000
  Au  Au1094    1.0  0.76603  0.63633  0.50000  1.0000
  Au  Au1095    1.0  0.78339  0.59089  0.47191  1.0000
  Au  Au1096    1.0  0.80075  0.54544  0.44383  1.0000
  Au  Au1097    1.0  0.74868  0.68178  0.58426  1.0000
  Au  Au1098    1.0  0.76603  0.63633  0.55617  1.0000
  Au  Au1099    1.0  0.78339  0.59089  0.52809  1.0000
  Au  Au1100    1.0  0.80075  0.54544  0.50000  1.0000
  Au  Au1101    1.0  0.76603  0.63633  0.61234  1.0000
  Au  Au1102    1.0  0.78339  0.59089  0.58426  1.0000
  Au  Au1103    1.0  0.80075  0.54544  0.55617  1.0000
  Au  Au1104    1.0  0.78339  0.59089  0.64043  1.0000
  Au  Au1105    1.0  0.80075  0.54544  0.61234  1.0000
  Au  Au1106    1.0  0.80075  0.54544  0.66852  1.0000
  Au  Au1107    1.0  0.28604  0.77266  0.47191  1.0000
  Au  Au1108    1.0  0.26868  0.72722  0.44383  1.0000
  Au  Au1109    1.0  0.25132  0.68178  0.41574  1.0000
  Au  Au1110    1.0  0.23397  0.63633  0.38766  1.0000
  Au  Au1111    1.0  0.21661  0.59089  0.35957  1.0000
  Au  Au1112    1.0  0.19925  0.54544  0.33148  1.0000
  Au  Au1113    1.0  0.28604  0.77266  0.52809  1.0000
  Au  Au1114    1.0  0.26868  0.72722  0.50000  1.0000
  Au  Au1115    1.0  0.25132  0.68178  0.47191  1.0000
  Au  Au1116    1.0  0.23397  0.63633  0.44383  1.0000
  Au  Au1117    1.0  0.21661  0.59089  0.41574  1.0000
  Au  Au1118    1.0  0.19925  0.54544  0.38766  1.0000
  Au  Au1119    1.0  0.26868  0.72722  0.55617  1.0000
  Au  Au1120    1.0  0.25132  0.68178  0.52809  1.0000
  Au  Au1121    1.0  0.23397  0.63633  0.50000  1.0000
  Au  Au1122    1.0  0.21661  0.59089  0.47191  1.0000
  Au  Au1123    1.0  0.19925  0.54544  0.44383  1.0000
  Au  Au1124    1.0  0.25132  0.68178  0.58426  1.0000
  Au  Au1125    1.0  0.23397  0.63633  0.55617  1.0000
  Au  Au1126    1.0  0.21661  0.59089  0.52809  1.0000
  Au  Au1127    1.0  0.19925  0.54544  0.50000  1.0000
  Au  Au1128    1.0  0.23397  0.63633  0.61234  1.0000
  Au  Au1129    1.0  0.21661  0.59089  0.58426  1.0000
  Au  Au1130    1.0  0.19925  0.54544  0.55617  1.0000
  Au  Au1131    1.0  0.21661  0.59089  0.64043  1.0000
  Au  Au1132    1.0  0.19925  0.54544  0.61234  1.0000
  Au  Au1133    1.0  0.19925  0.54544  0.66852  1.0000
  Au  Au1134    1.0  0.71396  0.22734  0.47191  1.0000
  Au  Au1135    1.0  0.73132  0.27278  0.44383  1.0000
  Au  Au1136    1.0  0.74868  0.31822  0.41574  1.0000
  Au  Au1137    1.0  0.76603  0.36367  0.38766  1.0000
  Au  Au1138    1.0  0.78339  0.40911  0.35957  1.0000
  Au  Au1139    1.0  0.80075  0.45456  0.33148  1.0000
  Au  Au1140    1.0  0.71396  0.22734  0.52809  1.0000
  Au  Au1141    1.0  0.73132  0.27278  0.50000  1.0000
  Au  Au1142    1.0  0.74868  0.31822  0.47191  1.0000
  Au  Au1143    1.0  0.76603  0.36367  0.44383  1.0000
  Au  Au1144    1.0  0.78339  0.40911  0.41574  1.0000
  Au  Au1145    1.0  0.80075  0.45456  0.38766  1.0000
  Au  Au1146    1.0  0.73132  0.27278  0.55617  1.0000
  Au  Au1147    1.0  0.74868  0.31822  0.52809  1.0000
  Au  Au1148    1.0  0.76603  0.36367  0.50000  1.0000
  Au  Au1149    1.0  0.78339  0.40911  0.47191  1.0000
  Au  Au1150    1.0  0.80075  0.45456  0.44383  1.0000
  Au  Au1151    1.0  0.74868  0.31822  0.58426  1.0000
  Au  Au1152    1.0  0.76603  0.36367  0.55617  1.0000
  Au  Au1153    1.0  0.78339  0.40911  0.52809  1.0000
  Au  Au1154    1.0  0.80075  0.45456  0.50000  1.0000
  Au  Au1155    1.0  0.76603  0.36367  0.61234  1.0000
  Au  Au1156    1.0  0.78339  0.40911  0.58426  1.0000
  Au  Au1157    1.0  0.80075  0.45456  0.55617  1.0000
  Au  Au1158    1.0  0.78339  0.40911  0.64043  1.0000
  Au  Au1159    1.0  0.80075  0.45456  0.61234  1.0000
  Au  Au1160    1.0  0.80075  0.45456  0.66852  1.0000
  Au  Au1161    1.0  0.28604  0.22734  0.47191  1.0000
  Au  Au1162    1.0  0.26868  0.27278  0.44383  1.0000
  Au  Au1163    1.0  0.25132  0.31822  0.41574  1.0000
  Au  Au1164    1.0  0.23397  0.36367  0.38766  1.0000
  Au  Au1165    1.0  0.21661  0.40911  0.35957  1.0000
  Au  Au1166    1.0  0.19925  0.45456  0.33148  1.0000
  Au  Au1167    1.0  0.28604  0.22734  0.52809  1.0000
  Au  Au1168    1.0  0.26868  0.27278  0.50000  1.0000
  Au  Au1169    1.0  0.25132  0.31822  0.47191  1.0000
  Au  Au1170    1.0  0.23397  0.36367  0.44383  1.0000
  Au  Au1171    1.0  0.21661  0.40911  0.41574  1.0000
  Au  Au1172    1.0  0.19925  0.45456  0.38766  1.0000
  Au  Au1173    1.0  0.26868  0.27278  0.55617  1.0000
  Au  Au1174    1.0  0.25132  0.31822  0.52809  1.0000
  Au  Au1175    1.0  0.23397  0.36367  0.50000  1.0000
  Au  Au1176    1.0  0.21661  0.40911  0.47191  1.0000
  Au  Au1177    1.0  0.19925  0.45456  0.44383  1.0000
  Au  Au1178    1.0  0.25132  0.31822  0.58426  1.0000
  Au  Au1179    1.0  0.23397  0.36367  0.55617  1.0000
  Au  Au1180    1.0  0.21661  0.40911  0.52809  1.0000
  Au  Au1181    1.0  0.19925  0.45456  0.50000  1.0000
  Au  Au1182    1.0  0.23397  0.36367  0.61234  1.0000
  Au  Au1183    1.0  0.21661  0.40911  0.58426  1.0000
  Au  Au1184    1.0  0.19925  0.45456  0.55617  1.0000
  Au  Au1185    1.0  0.21661  0.40911  0.64043  1.0000
  Au  Au1186    1.0  0.19925  0.45456  0.61234  1.0000
  Au  Au1187    1.0  0.19925  0.45456  0.66852  1.0000
  Au  Au1188    1.0  0.47191  0.71396  0.77266  1.0000
  Au  Au1189    1.0  0.44383  0.73132  0.72722  1.0000
  Au  Au1190    1.0  0.41574  0.74868  0.68178  1.0000
  Au  Au1191    1.0  0.38766  0.76603  0.63633  1.0000
  Au  Au1192    1.0  0.35957  0.78339  0.59089  1.0000
  Au  Au1193    1.0  0.33148  0.80075  0.54544  1.0000
  Au  Au1194    1.0  0.52809  0.71396  0.77266  1.0000
  Au  Au1195    1.0  0.50000  0.73132  0.72722  1.0000
  Au  Au1196    1.0  0.47191  0.74868  0.68178  1.0000
  Au  Au1197    1.0  0.44383  0.76603  0.63633  1.0000
  Au  Au1198    1.0  0.41574  0.78339  0.59089  1.0000
  Au  Au1199    1.0  0.38766  0.80075  0.54544  1.0000
  Au  Au1200    1.0  0.55617  0.73132  0.72722  1.0000
  Au  Au1201    1.0  0.52809  0.74868  0.68178  1.0000
  Au  Au1202    1.0  0.50000  0.76603  0.63633  1.0000
  Au  Au1203    1.0  0.47191  0.78339  0.59089  1.0000
  Au  Au1204    1.0  0.44383  0.80075  0.54544  1.0000
  Au  Au1205    1.0  0.58426  0.74868  0.68178  1.0000
  Au  Au1206    1.0  0.55617  0.76603  0.63633  1.0000
  Au  Au1207    1.0  0.52809  0.78339  0.59089  1.0000
  Au  Au1208    1.0  0.50000  0.80075  0.54544  1.0000
  Au  Au1209    1.0  0.61234  0.76603  0.63633  1.0000
  Au  Au1210    1.0  0.58426  0.78339  0.59089  1.0000
  Au  Au1211    1.0  0.55617  0.80075  0.54544  1.0000
  Au  Au1212    1.0  0.64043  0.78339  0.59089  1.0000
  Au  Au1213    1.0  0.61234  0.80075  0.54544  1.0000
  Au  Au1214    1.0  0.66852  0.80075  0.54544  1.0000
  Au  Au1215    1.0  0.47191  0.28604  0.77266  1.0000
  Au  Au1216    1.0  0.44383  0.26868  0.72722  1.0000
  Au  Au1217    1.0  0.41574  0.25132  0.68178  1.0000
  Au  Au1218    1.0  0.38766  0.23397  0.63633  1.0000
  Au  Au1219    1.0  0.35957  0.21661  0.59089  1.0000
  Au  Au1220    1.0  0.33148  0.19925  0.54544  1.0000
  Au  Au1221    1.0  0.52809  0.28604  0.77266  1.0000
  Au  Au1222    1.0  0.50000  0.26868  0.72722  1.0000
  Au  Au1223    1.0  0.47191  0.25132  0.68178  1.0000
  Au  Au1224    1.0  0.44383  0.23397  0.63633  1.0000
  Au  Au1225    1.0  0.41574  0.21661  0.59089  1.0000
  Au  Au1226    1.0  0.38766  0.19925  0.54544  1.0000
  Au  Au1227    1.0  0.55617  0.26868  0.72722  1.0000
  Au  Au1228    1.0  0.52809  0.25132  0.68178  1.0000
  Au  Au1229    1.0  0.50000  0.23397  0.63633  1.0000
  Au  Au1230    1.0  0.47191  0.21661  0.59089  1.0000
  Au  Au1231    1.0  0.44383  0.19925  0.54544  1.0000
  Au  Au1232    1.0  0.58426  0.25132  0.68178  1.0000
  Au  Au1233    1.0  0.55617  0.23397  0.63633  1.0000
  Au  Au1234    1.0  0.52809  0.21661  0.59089  1.0000
  Au  Au1235    1.0  0.50000  0.19925  0.54544  1.0000
  Au  Au1236    1.0  0.61234  0.23397  0.63633  1.0000
  Au  Au1237    1.0  0.58426  0.21661  0.59089  1.0000
  Au  Au1238    1.0  0.55617  0.19925  0.54544  1.0000
  Au  Au1239    1.0  0.64043  0.21661  0.59089  1.0000
  Au  Au1240    1.0  0.61234  0.19925  0.54544  1.0000
  Au  Au1241    1.0  0.66852  0.19925  0.54544  1.0000
  Au  Au1242    1.0  0.47191  0.71396  0.22734  1.0000
  Au  Au1243    1.0  0.44383  0.73132  0.27278  1.0000
  Au  Au1244    1.0  0.41574  0.74868  0.31822  1.0000
  Au  Au1245    1.0  0.38766  0.76603  0.36367  1.0000
  Au  Au1246    1.0  0.35957  0.78339  0.40911  1.0000
  Au  Au1247    1.0  0.33148  0.80075  0.45456  1.0000
  Au  Au1248    1.0  0.52809  0.71396  0.22734  1.0000
  Au  Au1249    1.0  0.50000  0.73132  0.27278  1.0000
  Au  Au1250    1.0  0.47191  0.74868  0.31822  1.0000
  Au  Au1251    1.0  0.44383  0.76603  0.36367  1.0000
  Au  Au1252    1.0  0.41574  0.78339  0.40911  1.0000
  Au  Au1253    1.0  0.38766  0.80075  0.45456  1.0000
  Au  Au1254    1.0  0.55617  0.73132  0.27278  1.0000
  Au  Au1255    1.0  0.52809  0.74868  0.31822  1.0000
  Au  Au1256    1.0  0.50000  0.76603  0.36367  1.0000
  Au  Au1257    1.0  0.47191  0.78339  0.40911  1.0000
  Au  Au1258    1.0  0.44383  0.80075  0.45456  1.0000
  Au  Au1259    1.0  0.58426  0.74868  0.31822  1.0000
  Au  Au1260    1.0  0.55617  0.76603  0.36367  1.0000
  Au  Au1261    1.0  0.52809  0.78339  0.40911  1.0000
  Au  Au1262    1.0  0.50000  0.80075  0.45456  1.0000
  Au  Au1263    1.0  0.61234  0.76603  0.36367  1.0000
  Au  Au1264    1.0  0.58426  0.78339  0.40911  1.0000
  Au  Au1265    1.0  0.55617  0.80075  0.45456  1.0000
  Au  Au1266    1.0  0.64043  0.78339  0.40911  1.0000
  Au  Au1267    1.0  0.61234  0.80075  0.45456  1.0000
  Au  Au1268    1.0  0.66852  0.80075  0.45456  1.0000
  Au  Au1269    1.0  0.47191  0.28604  0.22734  1.0000
  Au  Au1270    1.0  0.44383  0.26868  0.27278  1.0000
  Au  Au1271    1.0  0.41574  0.25132  0.31822  1.0000
  Au  Au1272    1.0  0.38766  0.23397  0.36367  1.0000
  Au  Au1273    1.0  0.35957  0.21661  0.40911  1.0000
  Au  Au1274    1.0  0.33148  0.19925  0.45456  1.0000
  Au  Au1275    1.0  0.52809  0.28604  0.22734  1.0000
  Au  Au1276    1.0  0.50000  0.26868  0.27278  1.0000
  Au  Au1277    1.0  0.47191  0.25132  0.31822  1.0000
  Au  Au1278    1.0  0.44383  0.23397  0.36367  1.0000
  Au  Au1279    1.0  0.41574  0.21661  0.40911  1.0000
  Au  Au1280    1.0  0.38766  0.19925  0.45456  1.0000
  Au  Au1281    1.0  0.55617  0.26868  0.27278  1.0000
  Au  Au1282    1.0  0.52809  0.25132  0.31822  1.0000
  Au  Au1283    1.0  0.50000  0.23397  0.36367  1.0000
  Au  Au1284    1.0  0.47191  0.21661  0.40911  1.0000
  Au  Au1285    1.0  0.44383  0.19925  0.45456  1.0000
  Au  Au1286    1.0  0.58426  0.25132  0.31822  1.0000
  Au  Au1287    1.0  0.55617  0.23397  0.36367  1.0000
  Au  Au1288    1.0  0.52809  0.21661  0.40911  1.0000
  Au  Au1289    1.0  0.50000  0.19925  0.45456  1.0000
  Au  Au1290    1.0  0.61234  0.23397  0.36367  1.0000
  Au  Au1291    1.0  0.58426  0.21661  0.40911  1.0000
  Au  Au1292    1.0  0.55617  0.19925  0.45456  1.0000
  Au  Au1293    1.0  0.64043  0.21661  0.40911  1.0000
  Au  Au1294    1.0  0.61234  0.19925  0.45456  1.0000
  Au  Au1295    1.0  0.66852  0.19925  0.45456  1.0000
  Au  Au1296    1.0  0.75531  0.42647  0.68587  1.0000
  Au  Au1297    1.0  0.75531  0.57353  0.68587  1.0000
  Au  Au1298    1.0  0.73795  0.38103  0.65779  1.0000
  Au  Au1299    1.0  0.73795  0.61897  0.65779  1.0000
  Au  Au1300    1.0  0.72059  0.33558  0.62970  1.0000
  Au  Au1301    1.0  0.72059  0.66442  0.62970  1.0000
  Au  Au1302    1.0  0.70323  0.29014  0.60162  1.0000
  Au  Au1303    1.0  0.70323  0.70986  0.60162  1.0000
  Au  Au1304    1.0  0.68587  0.24469  0.57353  1.0000
  Au  Au1305    1.0  0.68587  0.75531  0.57353  1.0000
  Au  Au1306    1.0  0.70986  0.39838  0.70323  1.0000
  Au  Au1307    1.0  0.70986  0.60162  0.70323  1.0000
  Au  Au1308    1.0  0.69250  0.35294  0.67515  1.0000
  Au  Au1309    1.0  0.69250  0.64706  0.67515  1.0000
  Au  Au1310    1.0  0.67515  0.30750  0.64706  1.0000
  Au  Au1311    1.0  0.67515  0.69250  0.64706  1.0000
  Au  Au1312    1.0  0.65779  0.26205  0.61897  1.0000
  Au  Au1313    1.0  0.65779  0.73795  0.61897  1.0000
  Au  Au1314    1.0  0.66442  0.37030  0.72059  1.0000
  Au  Au1315    1.0  0.66442  0.62970  0.72059  1.0000
  Au  Au1316    1.0  0.64706  0.32485  0.69250  1.0000
  Au  Au1317    1.0  0.64706  0.67515  0.69250  1.0000
  Au  Au1318    1.0  0.62970  0.27941  0.66442  1.0000
  Au  Au1319    1.0  0.62970  0.72059  0.66442  1.0000
  Au  Au1320    1.0  0.61897  0.34221  0.73795  1.0000
  Au  Au1321    1.0  0.61897  0.65779  0.73795  1.0000
  Au  Au1322    1.0  0.60162  0.29677  0.70986  1.0000
  Au  Au1323    1.0  0.60162  0.70323  0.70986  1.0000
  Au  Au1324    1.0  0.57353  0.31413  0.75531  1.0000
  Au  Au1325    1.0  0.57353  0.68587  0.75531  1.0000
  Au  Au1326    1.0  0.75531  0.42647  0.31413  1.0000
  Au  Au1327    1.0  0.75531  0.57353  0.31413  1.0000
  Au  Au1328    1.0  0.73795  0.38103  0.34221  1.0000
  Au  Au1329    1.0  0.73795  0.61897  0.34221  1.0000
  Au  Au1330    1.0  0.72059  0.33558  0.37030  1.0000
  Au  Au1331    1.0  0.72059  0.66442  0.37030  1.0000
  Au  Au1332    1.0  0.70323  0.29014  0.39838  1.0000
  Au  Au1333    1.0  0.70323  0.70986  0.39838  1.0000
  Au  Au1334    1.0  0.68587  0.24469  0.42647  1.0000
  Au  Au1335    1.0  0.68587  0.75531  0.42647  1.0000
  Au  Au1336    1.0  0.70986  0.39838  0.29677  1.0000
  Au  Au1337    1.0  0.70986  0.60162  0.29677  1.0000
  Au  Au1338    1.0  0.69250  0.35294  0.32485  1.0000
  Au  Au1339    1.0  0.69250  0.64706  0.32485  1.0000
  Au  Au1340    1.0  0.67515  0.30750  0.35294  1.0000
  Au  Au1341    1.0  0.67515  0.69250  0.35294  1.0000
  Au  Au1342    1.0  0.65779  0.26205  0.38103  1.0000
  Au  Au1343    1.0  0.65779  0.73795  0.38103  1.0000
  Au  Au1344    1.0  0.66442  0.37030  0.27941  1.0000
  Au  Au1345    1.0  0.66442  0.62970  0.27941  1.0000
  Au  Au1346    1.0  0.64706  0.32485  0.30750  1.0000
  Au  Au1347    1.0  0.64706  0.67515  0.30750  1.0000
  Au  Au1348    1.0  0.62970  0.27941  0.33558  1.0000
  Au  Au1349    1.0  0.62970  0.72059  0.33558  1.0000
  Au  Au1350    1.0  0.61897  0.34221  0.26205  1.0000
  Au  Au1351    1.0  0.61897  0.65779  0.26205  1.0000
  Au  Au1352    1.0  0.60162  0.29677  0.29014  1.0000
  Au  Au1353    1.0  0.60162  0.70323  0.29014  1.0000
  Au  Au1354    1.0  0.57353  0.31413  0.24469  1.0000
  Au  Au1355    1.0  0.57353  0.68587  0.24469  1.0000
  Au  Au1356    1.0  0.24469  0.42647  0.68587  1.0000
  Au  Au1357    1.0  0.24469  0.57353  0.68587  1.0000
  Au  Au1358    1.0  0.26205  0.38103  0.65779  1.0000
  Au  Au1359    1.0  0.26205  0.61897  0.65779  1.0000
  Au  Au1360    1.0  0.27941  0.33558  0.62970  1.0000
  Au  Au1361    1.0  0.27941  0.66442  0.62970  1.0000
  Au  Au1362    1.0  0.29677  0.29014  0.60162  1.0000
  Au  Au1363    1.0  0.29677  0.70986  0.60162  1.0000
  Au  Au1364    1.0  0.31413  0.24469  0.57353  1.0000
  Au  Au1365    1.0  0.31413  0.75531  0.57353  1.0000
  Au  Au1366    1.0  0.29014  0.39838  0.70323  1.0000
  Au  Au1367    1.0  0.29014  0.60162  0.70323  1.0000
  Au  Au1368    1.0  0.30750  0.35294  0.67515  1.0000
  Au  Au1369    1.0  0.30750  0.64706  0.67515  1.0000
  Au  Au1370    1.0  0.32485  0.30750  0.64706  1.0000
  Au  Au1371    1.0  0.32485  0.69250  0.64706  1.0000
  Au  Au1372    1.0  0.34221  0.26205  0.61897  1.0000
  Au  Au1373    1.0  0.34221  0.73795  0.61897  1.0000
  Au  Au1374    1.0  0.33558  0.37030  0.72059  1.0000
  Au  Au1375    1.0  0.33558  0.62970  0.72059  1.0000
  Au  Au1376    1.0  0.35294  0.32485  0.69250  1.0000
  Au  Au1377    1.0  0.35294  0.67515  0.69250  1.0000
  Au  Au1378    1.0  0.37030  0.27941  0.66442  1.0000
  Au  Au1379    1.0  0.37030  0.72059  0.66442  1.0000
  Au  Au1380    1.0  0.38103  0.34221  0.73795  1.0000
  Au  Au1381    1.0  0.38103  0.65779  0.73795  1.0000
  Au  Au1382    1.0  0.39838  0.29677  0.70986  1.0000
  Au  Au1383    1.0  0.39838  0.70323  0.70986  1.0000
  Au  Au1384    1.0  0.42647  0.31413  0.75531  1.0000
  Au  Au1385    1.0  0.42647  0.68587  0.75531  1.0000
  Au  Au1386    1.0  0.24469  0.42647  0.31413  1.0000
  Au  Au1387    1.0  0.24469  0.57353  0.31413  1.0000
  Au  Au1388    1.0  0.26205  0.38103  0.34221  1.0000
  Au  Au1389    1.0  0.26205  0.61897  0.34221  1.0000
  Au  Au1390    1.0  0.27941  0.33558  0.37030  1.0000
  Au  Au1391    1.0  0.27941  0.66442  0.37030  1.0000
  Au  Au1392    1.0  0.29677  0.29014  0.39838  1.0000
  Au  Au1393    1.0  0.29677  0.70986  0.39838  1.0000
  Au  Au1394    1.0  0.31413  0.24469  0.42647  1.0000
  Au  Au1395    1.0  0.31413  0.75531  0.42647  1.0000
  Au  Au1396    1.0  0.29014  0.39838  0.29677  1.0000
  Au  Au1397    1.0  0.29014  0.60162  0.29677  1.0000
  Au  Au1398    1.0  0.30750  0.35294  0.32485  1.0000
  Au  Au1399    1.0  0.30750  0.64706  0.32485  1.0000
  Au  Au1400    1.0  0.32485  0.30750  0.35294  1.0000
  Au  Au1401    1.0  0.32485  0.69250  0.35294  1.0000
  Au  Au1402    1.0  0.34221  0.26205  0.38103  1.0000
  Au  Au1403    1.0  0.34221  0.73795  0.38103  1.0000
  Au  Au1404    1.0  0.33558  0.37030  0.27941  1.0000
  Au  Au1405    1.0  0.33558  0.62970  0.27941  1.0000
  Au  Au1406    1.0  0.35294  0.32485  0.30750  1.0000
  Au  Au1407    1.0  0.35294  0.67515  0.30750  1.0000
  Au  Au1408    1.0  0.37030  0.27941  0.33558  1.0000
  Au  Au1409    1.0  0.37030  0.72059  0.33558  1.0000
  Au  Au1410    1.0  0.38103  0.34221  0.26205  1.0000
  Au  Au1411    1.0  0.38103  0.65779  0.26205  1.0000
  Au  Au1412    1.0  0.39838  0.29677  0.29014  1.0000
  Au  Au1413    1.0  0.39838  0.70323  0.29014  1.0000
  Au  Au1414    1.0  0.42647  0.31413  0.24469  1.0000
  Au  Au1415    1.0  0.42647  0.68587  0.24469  1.0000
